/*---------------------------------------------------------------------------*\
  =========                 |
  \\      /  F ield         | OpenFOAM: The Open Source CFD Toolbox
   \\    /   O peration     | Website:  https://openfoam.org
    \\  /    A nd           | Version:  7
     \\/     M anipulation  |
\*---------------------------------------------------------------------------*/
Build  : 7
Exec   : simpleFoam -postProcess -func R -case ./BOR
Date   : Nov 22 2022
Time   : 18:29:30
Host   : "spartan-bm113.hpc.unimelb.edu.au"
PID    : 83977
I/O    : uncollated
Case   : ./BOR
nProcs : 1
sigFpe : Enabling floating point exception trapping (FOAM_SIGFPE).
fileModificationChecking : Monitoring run-time modified files using timeStampMaster (fileModificationSkew 10)
allowSystemOperations : Allowing user-supplied system call operations

// * * * * * * * * * * * * * * * * * * * * * * * * * * * * * * * * * * * * * //
Create time

Create mesh for time = 0


SIMPLE: Convergence criteria found
        p: tolerance 1e-08
        U: tolerance 1e-08
        "(k|epsilon|R|omega)": tolerance 1e-08

Time = 0
Reading field p

Reading field U

Reading/calculating face flux field phi

Selecting incompressible transport model Newtonian
Selecting turbulence model type RAS
Selecting RAS turbulence model kOmegaSST_BOR_InDaLoop_R_added_features
Selecting patchDistMethod meshWave
bounding k, min: 0 max: 0.025229992 average: 0.0062544658
Reading tensor expression from GEP 

Tensor expression of nonlinearStress being run: 
((((1.0 * -1.0) * (-1.0 * (I1 - (-0.15 - 0.430)))) * ((I2 * ((0.430 - I2) * (0.205 - 0.097))) - 1.0))) * T1 + ((((I1 + ((0.430 + 1.0) - (I1 + -0.15))) + 0.089) - (I2 - (((I1 * I1) * I2) * I1)))) * T2 + (((0.205 - (0.089 - I1)) * ((I2 + 2.0) + -1.0))) * T3 

Tensor expression of Rij being run: 
(((I2 - 1.0) + (0.205 - (0.430 - 0.430)))) * T1 + (((I2 - I1) - (0.430 - (I1 * I1)))) * T2 + (((I1 - -1.0) + ((((0.097 + I2) - (0.089 + 2.0)) - -1.0) + (0.097 + I1)))) * T3 

No MRF models present

No finite volume options present
turbulenceFields R: storing fields:
    "R"

    functionObjects::turbulenceFields R writing field: R

Time = 2000
Reading field p

Reading field U

Reading/calculating face flux field phi

Selecting incompressible transport model Newtonian
Selecting turbulence model type RAS
Selecting RAS turbulence model kOmegaSST_BOR_InDaLoop_R_added_features
Selecting patchDistMethod meshWave
bounding k, min: 0 max: 0.022686007 average: 0.0047318782
bounding omega, min: 2.220446e-16 max: 1.5132687e+15 average: 1.2046057e+11
Reading tensor expression from GEP 

Tensor expression of nonlinearStress being run: 
((((1.0 * -1.0) * (-1.0 * (I1 - (-0.15 - 0.430)))) * ((I2 * ((0.430 - I2) * (0.205 - 0.097))) - 1.0))) * T1 + ((((I1 + ((0.430 + 1.0) - (I1 + -0.15))) + 0.089) - (I2 - (((I1 * I1) * I2) * I1)))) * T2 + (((0.205 - (0.089 - I1)) * ((I2 + 2.0) + -1.0))) * T3 

Tensor expression of Rij being run: 
(((I2 - 1.0) + (0.205 - (0.430 - 0.430)))) * T1 + (((I2 - I1) - (0.430 - (I1 * I1)))) * T2 + (((I1 - -1.0) + ((((0.097 + I2) - (0.089 + 2.0)) - -1.0) + (0.097 + I1)))) * T3 

No MRF models present

No finite volume options present
turbulenceFields R: storing fields:
    "R"

    functionObjects::turbulenceFields R writing field: R

End

