/*---------------------------------------------------------------------------*\
  =========                 |
  \\      /  F ield         | OpenFOAM: The Open Source CFD Toolbox
   \\    /   O peration     | Website:  https://openfoam.org
    \\  /    A nd           | Version:  8
     \\/     M anipulation  |
\*---------------------------------------------------------------------------*/
Build  : 8
Exec   : /usr/local/easybuild-2019/easybuild/software/mpi/gcc/8.3.0/openmpi/3.1.4/openfoam/8/OpenFOAM-8/platforms/linux64GccDPInt32Opt/bin/simpleFoam
Date   : Feb 14 2023
Time   : 12:04:36
Host   : "spartan-bm020.hpc.unimelb.edu.au"
PID    : 9104
I/O    : uncollated
Case   : /data/scratch/projects/punim0394/BOR/0.BASELINE/BSL_g3_higher_IC_nu_10-6
nProcs : 1
sigFpe : Enabling floating point exception trapping (FOAM_SIGFPE).
fileModificationChecking : Monitoring run-time modified files using timeStampMaster (fileModificationSkew 10)
allowSystemOperations : Allowing user-supplied system call operations

// * * * * * * * * * * * * * * * * * * * * * * * * * * * * * * * * * * * * * //
Create time

Create mesh for time = 110000


SIMPLE: Convergence criteria found
        p: tolerance 1e-07
        U: tolerance 1e-07
        "(k|epsilon|R|omega)": tolerance 1e-07

Reading field p

Reading field U

Reading/calculating face flux field phi

Selecting incompressible transport model Newtonian
Selecting turbulence model type RAS
Selecting RAS turbulence model kOmegaSST
Selecting patchDistMethod meshWave
bounding k, min: 0 max: 0.09060455962 average: 0.02816409843
RAS
{
    model           kOmegaSST;
    turbulence      on;
    printCoeffs     on;
    alphaK1         0.85;
    alphaK2         1;
    alphaOmega1     0.5;
    alphaOmega2     0.856;
    gamma1          0.5555555556;
    gamma2          0.44;
    beta1           0.075;
    beta2           0.0828;
    betaStar        0.09;
    a1              0.31;
    b1              1;
    c1              10;
    F3              false;
}

No MRF models present

No finite volume options present

Starting time loop

Time = 110001

smoothSolver:  Solving for Ux, Initial residual = 0.000736503791, Final residual = 9.353200523e-08, No Iterations 5
smoothSolver:  Solving for Uy, Initial residual = 0.0001563460873, Final residual = 5.060407945e-08, No Iterations 4
smoothSolver:  Solving for Uz, Initial residual = 0.007541572411, Final residual = 2.631548015e-08, No Iterations 6
GAMG:  Solving for p, Initial residual = 0.043887783, Final residual = 9.937559366e-08, No Iterations 563
time step continuity errors : sum local = 6.350975846e-09, global = -9.448677883e-10, cumulative = -9.448677883e-10
smoothSolver:  Solving for omega, Initial residual = 0.4464630905, Final residual = 1.765510613e-08, No Iterations 4
bounding omega, min: -389.3464864 max: 962550 average: 243.9856881
smoothSolver:  Solving for k, Initial residual = 0.002163086018, Final residual = 6.13720023e-08, No Iterations 5
bounding k, min: 0 max: 0.09061461885 average: 0.02833940847
ExecutionTime = 0.68 s  ClockTime = 1 s

Time = 110002

smoothSolver:  Solving for Ux, Initial residual = 0.001398456124, Final residual = 1.968291728e-08, No Iterations 6
smoothSolver:  Solving for Uy, Initial residual = 0.001291257105, Final residual = 9.231510727e-08, No Iterations 5
smoothSolver:  Solving for Uz, Initial residual = 0.01341644027, Final residual = 5.242070474e-08, No Iterations 6
GAMG:  Solving for p, Initial residual = 0.04862097788, Final residual = 9.98020428e-08, No Iterations 383
time step continuity errors : sum local = 7.544654961e-09, global = -1.389067464e-09, cumulative = -2.333935252e-09
smoothSolver:  Solving for omega, Initial residual = 0.212399554, Final residual = 4.886178963e-08, No Iterations 4
bounding omega, min: -290.9856482 max: 962550 average: 150.0644963
smoothSolver:  Solving for k, Initial residual = 0.00445683061, Final residual = 2.484625818e-08, No Iterations 6
bounding k, min: -1.152283204e-07 max: 0.09062807798 average: 0.02865634199
ExecutionTime = 1.11 s  ClockTime = 1 s

Time = 110003

smoothSolver:  Solving for Ux, Initial residual = 0.002155866865, Final residual = 2.209194071e-08, No Iterations 6
smoothSolver:  Solving for Uy, Initial residual = 0.001651414252, Final residual = 8.841205417e-08, No Iterations 5
smoothSolver:  Solving for Uz, Initial residual = 0.02043690249, Final residual = 8.275961177e-08, No Iterations 6
GAMG:  Solving for p, Initial residual = 0.05678025816, Final residual = 9.857328025e-08, No Iterations 343
time step continuity errors : sum local = 8.75748279e-09, global = -2.045825308e-09, cumulative = -4.37976056e-09
smoothSolver:  Solving for omega, Initial residual = 0.06423585798, Final residual = 9.665483977e-08, No Iterations 4
bounding omega, min: -243.1036868 max: 962550 average: 129.6680654
smoothSolver:  Solving for k, Initial residual = 0.004780903161, Final residual = 2.985399872e-08, No Iterations 6
bounding k, min: 0 max: 0.09064335943 average: 0.02897028549
ExecutionTime = 1.48 s  ClockTime = 1 s

Time = 110004

smoothSolver:  Solving for Ux, Initial residual = 0.002544197611, Final residual = 2.594507588e-08, No Iterations 6
smoothSolver:  Solving for Uy, Initial residual = 0.00135139121, Final residual = 8.429689806e-08, No Iterations 5
smoothSolver:  Solving for Uz, Initial residual = 0.02314897814, Final residual = 2.257510278e-08, No Iterations 7
GAMG:  Solving for p, Initial residual = 0.04753061428, Final residual = 8.880411676e-08, No Iterations 295
time step continuity errors : sum local = 8.537922232e-09, global = 2.006352273e-09, cumulative = -2.373408287e-09
smoothSolver:  Solving for omega, Initial residual = 0.1645940666, Final residual = 8.083719044e-08, No Iterations 4
bounding omega, min: -196.9208303 max: 962550 average: 106.8102403
smoothSolver:  Solving for k, Initial residual = 0.002941847846, Final residual = 3.214031723e-08, No Iterations 6
bounding k, min: 0 max: 0.09066212326 average: 0.02911944682
ExecutionTime = 1.82 s  ClockTime = 2 s

Time = 110005

smoothSolver:  Solving for Ux, Initial residual = 0.002311954862, Final residual = 3.166271645e-08, No Iterations 6
smoothSolver:  Solving for Uy, Initial residual = 0.001521628984, Final residual = 9.032611342e-08, No Iterations 5
smoothSolver:  Solving for Uz, Initial residual = 0.01899147913, Final residual = 9.489000857e-08, No Iterations 6
GAMG:  Solving for p, Initial residual = 0.03909031154, Final residual = 8.346381506e-08, No Iterations 292
time step continuity errors : sum local = 7.425778871e-09, global = -2.207505663e-09, cumulative = -4.58091395e-09
smoothSolver:  Solving for omega, Initial residual = 0.2250488026, Final residual = 2.142257032e-08, No Iterations 5
bounding omega, min: -767.7182477 max: 962550 average: 85.03877379
smoothSolver:  Solving for k, Initial residual = 0.004109737563, Final residual = 3.848425653e-08, No Iterations 6
bounding k, min: 0 max: 0.09068635318 average: 0.02932809455
ExecutionTime = 2.16 s  ClockTime = 2 s

Time = 110006

smoothSolver:  Solving for Ux, Initial residual = 0.001744346199, Final residual = 3.814057207e-08, No Iterations 6
smoothSolver:  Solving for Uy, Initial residual = 0.001341499824, Final residual = 6.401087005e-08, No Iterations 5
smoothSolver:  Solving for Uz, Initial residual = 0.01567980964, Final residual = 7.547623315e-08, No Iterations 6
GAMG:  Solving for p, Initial residual = 0.03921484118, Final residual = 8.57748055e-08, No Iterations 281
time step continuity errors : sum local = 6.255461231e-09, global = 1.605765031e-09, cumulative = -2.975148919e-09
smoothSolver:  Solving for omega, Initial residual = 0.1385909733, Final residual = 5.135660448e-08, No Iterations 5
bounding omega, min: -327.3737304 max: 962550 average: 144.7948422
smoothSolver:  Solving for k, Initial residual = 0.007584167149, Final residual = 3.365188096e-08, No Iterations 6
bounding k, min: 0 max: 0.09071788097 average: 0.0294369211
ExecutionTime = 2.49 s  ClockTime = 2 s

Time = 110007

smoothSolver:  Solving for Ux, Initial residual = 0.00130118323, Final residual = 4.529005284e-08, No Iterations 6
smoothSolver:  Solving for Uy, Initial residual = 0.001079894234, Final residual = 6.601703382e-08, No Iterations 5
smoothSolver:  Solving for Uz, Initial residual = 0.01574687626, Final residual = 6.329277715e-08, No Iterations 6
GAMG:  Solving for p, Initial residual = 0.03990084111, Final residual = 8.778271817e-08, No Iterations 257
time step continuity errors : sum local = 5.573621069e-09, global = -1.247820871e-09, cumulative = -4.222969791e-09
smoothSolver:  Solving for omega, Initial residual = 0.252434541, Final residual = 4.897126239e-08, No Iterations 5
bounding omega, min: -175.9928674 max: 962550 average: 182.9791445
smoothSolver:  Solving for k, Initial residual = 0.0240249813, Final residual = 3.055063877e-08, No Iterations 6
bounding k, min: 0 max: 0.09075817037 average: 0.0293727186
ExecutionTime = 2.8 s  ClockTime = 3 s

Time = 110008

smoothSolver:  Solving for Ux, Initial residual = 0.001139298384, Final residual = 5.142855318e-08, No Iterations 6
smoothSolver:  Solving for Uy, Initial residual = 0.001097627269, Final residual = 6.472814316e-08, No Iterations 5
smoothSolver:  Solving for Uz, Initial residual = 0.01481854775, Final residual = 6.461908868e-08, No Iterations 6
GAMG:  Solving for p, Initial residual = 0.04458734764, Final residual = 8.238137532e-08, No Iterations 275
time step continuity errors : sum local = 4.842705122e-09, global = -1.526134699e-09, cumulative = -5.749104489e-09
smoothSolver:  Solving for omega, Initial residual = 0.3353985139, Final residual = 2.846851075e-08, No Iterations 5
bounding omega, min: -175.7141323 max: 962550 average: 126.539418
smoothSolver:  Solving for k, Initial residual = 0.01224851757, Final residual = 3.561793599e-08, No Iterations 6
bounding k, min: 0 max: 0.09080203961 average: 0.02946256664
ExecutionTime = 3.13 s  ClockTime = 3 s

Time = 110009

smoothSolver:  Solving for Ux, Initial residual = 0.00116538201, Final residual = 5.585490112e-08, No Iterations 6
smoothSolver:  Solving for Uy, Initial residual = 0.001101763529, Final residual = 6.042676059e-08, No Iterations 5
smoothSolver:  Solving for Uz, Initial residual = 0.01302554237, Final residual = 6.199980451e-08, No Iterations 6
GAMG:  Solving for p, Initial residual = 0.04594311401, Final residual = 8.893085509e-08, No Iterations 257
time step continuity errors : sum local = 5.258414432e-09, global = -1.512143608e-09, cumulative = -7.261248097e-09
smoothSolver:  Solving for omega, Initial residual = 0.2867885561, Final residual = 6.103685168e-08, No Iterations 6
bounding omega, min: -545.3821656 max: 962550 average: 222.0811705
smoothSolver:  Solving for k, Initial residual = 0.02990875489, Final residual = 8.798882008e-08, No Iterations 6
bounding k, min: 0 max: 0.09084156475 average: 0.02931298316
ExecutionTime = 3.44 s  ClockTime = 3 s

Time = 110010

smoothSolver:  Solving for Ux, Initial residual = 0.001319596255, Final residual = 5.596622466e-08, No Iterations 6
smoothSolver:  Solving for Uy, Initial residual = 0.0009530782179, Final residual = 6.684869846e-08, No Iterations 5
smoothSolver:  Solving for Uz, Initial residual = 0.01179732696, Final residual = 6.046433187e-08, No Iterations 6
GAMG:  Solving for p, Initial residual = 0.04658330605, Final residual = 9.628824155e-08, No Iterations 241
time step continuity errors : sum local = 5.955011904e-09, global = -2.18741283e-09, cumulative = -9.448660927e-09
smoothSolver:  Solving for omega, Initial residual = 0.3087802938, Final residual = 4.937183064e-08, No Iterations 5
bounding omega, min: -262.0001471 max: 962550 average: 176.0298926
smoothSolver:  Solving for k, Initial residual = 0.02113156117, Final residual = 9.59362766e-08, No Iterations 6
bounding k, min: -4.182606081e-05 max: 0.098594319 average: 0.0290660592
ExecutionTime = 3.72 s  ClockTime = 4 s

Time = 110011

smoothSolver:  Solving for Ux, Initial residual = 0.001287163726, Final residual = 5.761656901e-08, No Iterations 6
smoothSolver:  Solving for Uy, Initial residual = 0.0009846206412, Final residual = 8.48106266e-08, No Iterations 5
smoothSolver:  Solving for Uz, Initial residual = 0.01101196774, Final residual = 6.086219791e-08, No Iterations 6
GAMG:  Solving for p, Initial residual = 0.04518883052, Final residual = 9.068524824e-08, No Iterations 258
time step continuity errors : sum local = 5.63913407e-09, global = -1.998488932e-09, cumulative = -1.144714986e-08
smoothSolver:  Solving for omega, Initial residual = 0.2441724322, Final residual = 6.256410312e-08, No Iterations 5
bounding omega, min: -230.5739654 max: 962550 average: 131.9957114
smoothSolver:  Solving for k, Initial residual = 0.01184456324, Final residual = 8.000087988e-08, No Iterations 6
bounding k, min: 0 max: 0.110513419 average: 0.02901850219
ExecutionTime = 4.03 s  ClockTime = 4 s

Time = 110012

smoothSolver:  Solving for Ux, Initial residual = 0.001235497815, Final residual = 5.98383279e-08, No Iterations 6
smoothSolver:  Solving for Uy, Initial residual = 0.000995533683, Final residual = 9.321540117e-08, No Iterations 5
smoothSolver:  Solving for Uz, Initial residual = 0.01049371956, Final residual = 6.451976074e-08, No Iterations 6
GAMG:  Solving for p, Initial residual = 0.04422439846, Final residual = 7.965245194e-08, No Iterations 224
time step continuity errors : sum local = 4.940579905e-09, global = -1.448428106e-09, cumulative = -1.289557796e-08
smoothSolver:  Solving for omega, Initial residual = 0.2198525497, Final residual = 9.603263332e-08, No Iterations 5
bounding omega, min: -167.5440371 max: 962550 average: 133.8347626
smoothSolver:  Solving for k, Initial residual = 0.01627816212, Final residual = 8.06924396e-08, No Iterations 6
bounding k, min: 0 max: 0.1016486315 average: 0.02907983689
ExecutionTime = 4.3 s  ClockTime = 4 s

Time = 110013

smoothSolver:  Solving for Ux, Initial residual = 0.001220819025, Final residual = 6.021143339e-08, No Iterations 6
smoothSolver:  Solving for Uy, Initial residual = 0.0009364525271, Final residual = 2.109222678e-08, No Iterations 6
smoothSolver:  Solving for Uz, Initial residual = 0.01008538394, Final residual = 6.726971775e-08, No Iterations 6
GAMG:  Solving for p, Initial residual = 0.04924057446, Final residual = 9.960986897e-08, No Iterations 306
time step continuity errors : sum local = 6.199902411e-09, global = 1.790446732e-09, cumulative = -1.110513123e-08
smoothSolver:  Solving for omega, Initial residual = 0.2773251641, Final residual = 1.949375189e-08, No Iterations 6
bounding omega, min: -697.7861222 max: 962550 average: 174.0751616
smoothSolver:  Solving for k, Initial residual = 0.03920563536, Final residual = 7.859998631e-08, No Iterations 6
bounding k, min: 0 max: 0.1456124899 average: 0.02908856185
ExecutionTime = 4.66 s  ClockTime = 5 s

Time = 110014

smoothSolver:  Solving for Ux, Initial residual = 0.001236516371, Final residual = 5.912845716e-08, No Iterations 6
smoothSolver:  Solving for Uy, Initial residual = 0.001057093804, Final residual = 2.043467179e-08, No Iterations 6
smoothSolver:  Solving for Uz, Initial residual = 0.009803890937, Final residual = 6.633759217e-08, No Iterations 6
GAMG:  Solving for p, Initial residual = 0.05011570415, Final residual = 9.109477039e-08, No Iterations 243
time step continuity errors : sum local = 5.721366478e-09, global = 1.925755764e-09, cumulative = -9.179375469e-09
smoothSolver:  Solving for omega, Initial residual = 0.3744210068, Final residual = 3.265153975e-08, No Iterations 6
bounding omega, min: -355.8896548 max: 962550 average: 223.0069758
smoothSolver:  Solving for k, Initial residual = 0.0365183448, Final residual = 2.777361429e-08, No Iterations 7
bounding k, min: 0 max: 0.1202240713 average: 0.02886751401
ExecutionTime = 4.95 s  ClockTime = 5 s

Time = 110015

smoothSolver:  Solving for Ux, Initial residual = 0.001267484356, Final residual = 5.912906572e-08, No Iterations 6
smoothSolver:  Solving for Uy, Initial residual = 0.001121050428, Final residual = 2.223914394e-08, No Iterations 6
smoothSolver:  Solving for Uz, Initial residual = 0.009162836068, Final residual = 6.166761296e-08, No Iterations 6
GAMG:  Solving for p, Initial residual = 0.05299938527, Final residual = 8.508174186e-08, No Iterations 246
time step continuity errors : sum local = 5.313538732e-09, global = 1.544231469e-09, cumulative = -7.635144e-09
smoothSolver:  Solving for omega, Initial residual = 0.3013336157, Final residual = 6.034873411e-08, No Iterations 5
bounding omega, min: -231.8526589 max: 962550 average: 165.8816804
smoothSolver:  Solving for k, Initial residual = 0.02155960881, Final residual = 2.593984369e-08, No Iterations 7
bounding k, min: 0 max: 0.1335542767 average: 0.02865881315
ExecutionTime = 5.25 s  ClockTime = 5 s

Time = 110016

smoothSolver:  Solving for Ux, Initial residual = 0.001144235002, Final residual = 5.818983527e-08, No Iterations 6
smoothSolver:  Solving for Uy, Initial residual = 0.001067130322, Final residual = 2.498572845e-08, No Iterations 6
smoothSolver:  Solving for Uz, Initial residual = 0.009163158386, Final residual = 6.359586647e-08, No Iterations 6
GAMG:  Solving for p, Initial residual = 0.04781140068, Final residual = 9.561297193e-08, No Iterations 244
time step continuity errors : sum local = 5.819345603e-09, global = 1.796280268e-09, cumulative = -5.838863731e-09
smoothSolver:  Solving for omega, Initial residual = 0.2066242997, Final residual = 6.251074139e-08, No Iterations 5
bounding omega, min: -152.9847989 max: 962550 average: 134.367124
smoothSolver:  Solving for k, Initial residual = 0.01344938591, Final residual = 2.162592137e-08, No Iterations 7
bounding k, min: 0 max: 0.1193859394 average: 0.0286060435
ExecutionTime = 5.55 s  ClockTime = 5 s

Time = 110017

smoothSolver:  Solving for Ux, Initial residual = 0.001081128434, Final residual = 5.782092295e-08, No Iterations 6
smoothSolver:  Solving for Uy, Initial residual = 0.001078367125, Final residual = 2.76743909e-08, No Iterations 6
smoothSolver:  Solving for Uz, Initial residual = 0.00911728876, Final residual = 6.177205547e-08, No Iterations 6
GAMG:  Solving for p, Initial residual = 0.0508986148, Final residual = 9.938659932e-08, No Iterations 208
time step continuity errors : sum local = 5.946348179e-09, global = -1.599142616e-09, cumulative = -7.438006347e-09
smoothSolver:  Solving for omega, Initial residual = 0.1950904099, Final residual = 4.998570695e-08, No Iterations 5
bounding omega, min: -931.7753667 max: 962550 average: 123.1200795
smoothSolver:  Solving for k, Initial residual = 0.01611005055, Final residual = 9.878825741e-08, No Iterations 6
bounding k, min: 0 max: 0.1418100384 average: 0.02866456212
ExecutionTime = 5.81 s  ClockTime = 6 s

Time = 110018

smoothSolver:  Solving for Ux, Initial residual = 0.001096128653, Final residual = 5.647995023e-08, No Iterations 6
smoothSolver:  Solving for Uy, Initial residual = 0.001065730962, Final residual = 2.628161503e-08, No Iterations 6
smoothSolver:  Solving for Uz, Initial residual = 0.009092254415, Final residual = 6.076938383e-08, No Iterations 6
GAMG:  Solving for p, Initial residual = 0.05136742626, Final residual = 9.77632018e-08, No Iterations 315
time step continuity errors : sum local = 5.91975922e-09, global = 1.554235646e-09, cumulative = -5.883770701e-09
smoothSolver:  Solving for omega, Initial residual = 0.2240164318, Final residual = 7.51335587e-08, No Iterations 5
bounding omega, min: -389.5597049 max: 962550 average: 143.9186866
smoothSolver:  Solving for k, Initial residual = 0.02590564631, Final residual = 9.659212019e-08, No Iterations 6
bounding k, min: -0.0002859692497 max: 0.1497946866 average: 0.02873255914
ExecutionTime = 6.16 s  ClockTime = 6 s

Time = 110019

smoothSolver:  Solving for Ux, Initial residual = 0.001173783869, Final residual = 5.491378492e-08, No Iterations 6
smoothSolver:  Solving for Uy, Initial residual = 0.001098807451, Final residual = 2.452108287e-08, No Iterations 6
smoothSolver:  Solving for Uz, Initial residual = 0.00868183272, Final residual = 6.075984234e-08, No Iterations 6
GAMG:  Solving for p, Initial residual = 0.05281954309, Final residual = 9.711095518e-08, No Iterations 280
time step continuity errors : sum local = 6.032577434e-09, global = -1.35619238e-09, cumulative = -7.239963081e-09
smoothSolver:  Solving for omega, Initial residual = 0.3016694213, Final residual = 4.692401048e-08, No Iterations 6
bounding omega, min: -244.2197009 max: 962550 average: 213.479353
smoothSolver:  Solving for k, Initial residual = 0.04154646218, Final residual = 2.955335555e-08, No Iterations 7
bounding k, min: 0 max: 0.1391041836 average: 0.02851322003
ExecutionTime = 6.5 s  ClockTime = 6 s

Time = 110020

smoothSolver:  Solving for Ux, Initial residual = 0.001257565618, Final residual = 5.588751835e-08, No Iterations 6
smoothSolver:  Solving for Uy, Initial residual = 0.001146109387, Final residual = 2.596509163e-08, No Iterations 6
smoothSolver:  Solving for Uz, Initial residual = 0.008775266244, Final residual = 5.977805904e-08, No Iterations 6
GAMG:  Solving for p, Initial residual = 0.05551055035, Final residual = 8.916111504e-08, No Iterations 232
time step continuity errors : sum local = 5.680447194e-09, global = -1.296528763e-09, cumulative = -8.536491844e-09
smoothSolver:  Solving for omega, Initial residual = 0.3091140104, Final residual = 6.004400146e-08, No Iterations 5
bounding omega, min: -166.1368533 max: 962550 average: 172.0782464
smoothSolver:  Solving for k, Initial residual = 0.03523628581, Final residual = 2.624466725e-08, No Iterations 7
bounding k, min: 0 max: 0.1448016407 average: 0.02833471788
ExecutionTime = 6.79 s  ClockTime = 7 s

Time = 110021

smoothSolver:  Solving for Ux, Initial residual = 0.001168452985, Final residual = 5.414740509e-08, No Iterations 6
smoothSolver:  Solving for Uy, Initial residual = 0.001173741341, Final residual = 2.714528897e-08, No Iterations 6
smoothSolver:  Solving for Uz, Initial residual = 0.008533107158, Final residual = 5.976218303e-08, No Iterations 6
GAMG:  Solving for p, Initial residual = 0.04947168126, Final residual = 9.093323582e-08, No Iterations 224
time step continuity errors : sum local = 5.651502631e-09, global = -1.505928148e-09, cumulative = -1.004241999e-08
smoothSolver:  Solving for omega, Initial residual = 0.2764139537, Final residual = 4.605684113e-08, No Iterations 5
bounding omega, min: -137.2494905 max: 962550 average: 149.9914849
smoothSolver:  Solving for k, Initial residual = 0.02005912991, Final residual = 2.187893345e-08, No Iterations 7
bounding k, min: -0.008738268438 max: 0.1985534452 average: 0.0282832408
ExecutionTime = 7.05 s  ClockTime = 7 s

Time = 110022

smoothSolver:  Solving for Ux, Initial residual = 0.001094533142, Final residual = 5.274280279e-08, No Iterations 6
smoothSolver:  Solving for Uy, Initial residual = 0.00116876208, Final residual = 2.691310622e-08, No Iterations 6
smoothSolver:  Solving for Uz, Initial residual = 0.008562124653, Final residual = 5.93986716e-08, No Iterations 6
GAMG:  Solving for p, Initial residual = 0.05173661989, Final residual = 9.819411169e-08, No Iterations 242
time step continuity errors : sum local = 5.914788344e-09, global = 1.43703835e-09, cumulative = -8.605381642e-09
smoothSolver:  Solving for omega, Initial residual = 0.214810943, Final residual = 4.262815331e-08, No Iterations 5
bounding omega, min: -1113.90345 max: 962550 average: 146.7999653
smoothSolver:  Solving for k, Initial residual = 0.02013598152, Final residual = 2.046491173e-08, No Iterations 7
bounding k, min: 0 max: 0.1661706089 average: 0.02820285627
ExecutionTime = 7.33 s  ClockTime = 7 s

Time = 110023

smoothSolver:  Solving for Ux, Initial residual = 0.001080824321, Final residual = 5.126154739e-08, No Iterations 6
smoothSolver:  Solving for Uy, Initial residual = 0.001196366505, Final residual = 2.676525943e-08, No Iterations 6
smoothSolver:  Solving for Uz, Initial residual = 0.00810286898, Final residual = 5.695093132e-08, No Iterations 6
GAMG:  Solving for p, Initial residual = 0.05201509537, Final residual = 9.060002937e-08, No Iterations 298
time step continuity errors : sum local = 5.513960284e-09, global = -1.881260754e-09, cumulative = -1.04866424e-08
smoothSolver:  Solving for omega, Initial residual = 0.2090588449, Final residual = 5.017356692e-08, No Iterations 5
bounding omega, min: -430.0002723 max: 962550 average: 130.3469853
smoothSolver:  Solving for k, Initial residual = 0.02262013127, Final residual = 1.974600692e-08, No Iterations 7
bounding k, min: -0.001420429375 max: 0.1893653545 average: 0.02827517619
ExecutionTime = 7.67 s  ClockTime = 8 s

Time = 110024

smoothSolver:  Solving for Ux, Initial residual = 0.001109804606, Final residual = 4.968978386e-08, No Iterations 6
smoothSolver:  Solving for Uy, Initial residual = 0.001158144519, Final residual = 2.704132e-08, No Iterations 6
smoothSolver:  Solving for Uz, Initial residual = 0.008196208835, Final residual = 5.638508704e-08, No Iterations 6
GAMG:  Solving for p, Initial residual = 0.0541641378, Final residual = 9.419605908e-08, No Iterations 269
time step continuity errors : sum local = 5.771392699e-09, global = -1.96851333e-09, cumulative = -1.245515573e-08
smoothSolver:  Solving for omega, Initial residual = 0.2565555965, Final residual = 3.545757598e-08, No Iterations 6
bounding omega, min: -268.855396 max: 962550 average: 189.5897797
smoothSolver:  Solving for k, Initial residual = 0.03973582983, Final residual = 2.689556865e-08, No Iterations 7
bounding k, min: -0.0006078367783 max: 0.1618259827 average: 0.02812616212
ExecutionTime = 7.99 s  ClockTime = 8 s

Time = 110025

smoothSolver:  Solving for Ux, Initial residual = 0.001185449306, Final residual = 5.078067836e-08, No Iterations 6
smoothSolver:  Solving for Uy, Initial residual = 0.001180416487, Final residual = 2.828481315e-08, No Iterations 6
smoothSolver:  Solving for Uz, Initial residual = 0.008279757412, Final residual = 5.49560061e-08, No Iterations 6
GAMG:  Solving for p, Initial residual = 0.05219490867, Final residual = 9.571217743e-08, No Iterations 230
time step continuity errors : sum local = 5.963747903e-09, global = 1.623391401e-09, cumulative = -1.083176432e-08
smoothSolver:  Solving for omega, Initial residual = 0.2849715197, Final residual = 4.501625795e-08, No Iterations 5
bounding omega, min: -193.2393205 max: 962550 average: 158.9873946
smoothSolver:  Solving for k, Initial residual = 0.02793012052, Final residual = 2.390800834e-08, No Iterations 7
bounding k, min: 0 max: 0.1876059497 average: 0.02797656599
ExecutionTime = 8.28 s  ClockTime = 8 s

Time = 110026

smoothSolver:  Solving for Ux, Initial residual = 0.001146261099, Final residual = 4.8932666e-08, No Iterations 6
smoothSolver:  Solving for Uy, Initial residual = 0.001206873946, Final residual = 2.896509655e-08, No Iterations 6
smoothSolver:  Solving for Uz, Initial residual = 0.008167409593, Final residual = 5.246204282e-08, No Iterations 6
GAMG:  Solving for p, Initial residual = 0.05629934577, Final residual = 9.58933227e-08, No Iterations 234
time step continuity errors : sum local = 5.95463616e-09, global = -1.543682233e-09, cumulative = -1.237544656e-08
smoothSolver:  Solving for omega, Initial residual = 0.2349529399, Final residual = 5.180726557e-08, No Iterations 5
bounding omega, min: -151.3989071 max: 962550 average: 152.6359082
smoothSolver:  Solving for k, Initial residual = 0.0242746111, Final residual = 2.128853421e-08, No Iterations 7
bounding k, min: -0.005628479799 max: 0.1595013861 average: 0.02790144719
ExecutionTime = 8.56 s  ClockTime = 8 s

Time = 110027

smoothSolver:  Solving for Ux, Initial residual = 0.001106845326, Final residual = 4.763746201e-08, No Iterations 6
smoothSolver:  Solving for Uy, Initial residual = 0.001288360719, Final residual = 2.86934158e-08, No Iterations 6
smoothSolver:  Solving for Uz, Initial residual = 0.008089293294, Final residual = 4.899787066e-08, No Iterations 6
GAMG:  Solving for p, Initial residual = 0.05655622577, Final residual = 9.65170785e-08, No Iterations 191
time step continuity errors : sum local = 5.94448598e-09, global = 1.3963783e-09, cumulative = -1.097906826e-08
smoothSolver:  Solving for omega, Initial residual = 0.2390479403, Final residual = 4.524692425e-08, No Iterations 5
bounding omega, min: -1078.281714 max: 962550 average: 152.6591821
smoothSolver:  Solving for k, Initial residual = 0.0295438255, Final residual = 1.959805089e-08, No Iterations 7
bounding k, min: 0 max: 0.1835655947 average: 0.02786508306
ExecutionTime = 8.82 s  ClockTime = 9 s

Time = 110028

smoothSolver:  Solving for Ux, Initial residual = 0.001102610745, Final residual = 4.616869801e-08, No Iterations 6
smoothSolver:  Solving for Uy, Initial residual = 0.001287489201, Final residual = 2.768067854e-08, No Iterations 6
smoothSolver:  Solving for Uz, Initial residual = 0.008191957695, Final residual = 4.90671802e-08, No Iterations 6
GAMG:  Solving for p, Initial residual = 0.05573425535, Final residual = 8.305035838e-08, No Iterations 248
time step continuity errors : sum local = 5.161933512e-09, global = 1.353596702e-09, cumulative = -9.625471555e-09
smoothSolver:  Solving for omega, Initial residual = 0.2671502526, Final residual = 6.067840753e-08, No Iterations 5
bounding omega, min: -423.8569967 max: 962550 average: 167.1782971
smoothSolver:  Solving for k, Initial residual = 0.02612918886, Final residual = 2.145927658e-08, No Iterations 7
bounding k, min: -0.0006644659616 max: 0.1598007656 average: 0.02773884063
ExecutionTime = 9.11 s  ClockTime = 9 s

Time = 110029

smoothSolver:  Solving for Ux, Initial residual = 0.001119091421, Final residual = 4.613446607e-08, No Iterations 6
smoothSolver:  Solving for Uy, Initial residual = 0.001325358114, Final residual = 3.059301455e-08, No Iterations 6
smoothSolver:  Solving for Uz, Initial residual = 0.008113432318, Final residual = 4.974684189e-08, No Iterations 6
GAMG:  Solving for p, Initial residual = 0.05644651667, Final residual = 9.638833535e-08, No Iterations 246
time step continuity errors : sum local = 5.982127698e-09, global = 1.63435362e-09, cumulative = -7.991117935e-09
smoothSolver:  Solving for omega, Initial residual = 0.2338623056, Final residual = 3.821699558e-08, No Iterations 5
bounding omega, min: -267.3641065 max: 962550 average: 147.5299926
smoothSolver:  Solving for k, Initial residual = 0.02407347454, Final residual = 2.077764161e-08, No Iterations 7
bounding k, min: -0.001363069584 max: 0.1802123374 average: 0.02765355444
ExecutionTime = 9.41 s  ClockTime = 9 s

Time = 110030

smoothSolver:  Solving for Ux, Initial residual = 0.001105401823, Final residual = 4.443363632e-08, No Iterations 6
smoothSolver:  Solving for Uy, Initial residual = 0.001346810631, Final residual = 3.15524291e-08, No Iterations 6
smoothSolver:  Solving for Uz, Initial residual = 0.007930195135, Final residual = 5.013496043e-08, No Iterations 6
GAMG:  Solving for p, Initial residual = 0.0562848765, Final residual = 9.877262895e-08, No Iterations 222
time step continuity errors : sum local = 6.177838652e-09, global = -1.811129476e-09, cumulative = -9.80224741e-09
smoothSolver:  Solving for omega, Initial residual = 0.2181948329, Final residual = 5.333486247e-08, No Iterations 5
bounding omega, min: -199.0414915 max: 962550 average: 149.9699665
smoothSolver:  Solving for k, Initial residual = 0.02789250394, Final residual = 1.953285766e-08, No Iterations 7
bounding k, min: -4.474893652e-05 max: 0.1651026757 average: 0.02761959941
ExecutionTime = 9.68 s  ClockTime = 10 s

Time = 110031

smoothSolver:  Solving for Ux, Initial residual = 0.001113438574, Final residual = 4.332033607e-08, No Iterations 6
smoothSolver:  Solving for Uy, Initial residual = 0.001330609446, Final residual = 2.922482789e-08, No Iterations 6
smoothSolver:  Solving for Uz, Initial residual = 0.00783413651, Final residual = 5.243605468e-08, No Iterations 6
GAMG:  Solving for p, Initial residual = 0.05786004958, Final residual = 9.762733247e-08, No Iterations 227
time step continuity errors : sum local = 6.114643149e-09, global = 1.580555542e-09, cumulative = -8.221691868e-09
smoothSolver:  Solving for omega, Initial residual = 0.2485530895, Final residual = 6.989406641e-08, No Iterations 5
bounding omega, min: -154.7850935 max: 962550 average: 164.5756731
smoothSolver:  Solving for k, Initial residual = 0.03325131867, Final residual = 2.089304923e-08, No Iterations 7
bounding k, min: 0 max: 0.1768031023 average: 0.02753039733
ExecutionTime = 9.96 s  ClockTime = 10 s

Time = 110032

smoothSolver:  Solving for Ux, Initial residual = 0.001138768067, Final residual = 4.312247697e-08, No Iterations 6
smoothSolver:  Solving for Uy, Initial residual = 0.001343143001, Final residual = 3.18900504e-08, No Iterations 6
smoothSolver:  Solving for Uz, Initial residual = 0.00796148911, Final residual = 5.235540915e-08, No Iterations 6
GAMG:  Solving for p, Initial residual = 0.06130453002, Final residual = 9.822152421e-08, No Iterations 270
time step continuity errors : sum local = 6.215640551e-09, global = -1.569938655e-09, cumulative = -9.791630523e-09
smoothSolver:  Solving for omega, Initial residual = 0.2612549078, Final residual = 5.341538342e-08, No Iterations 5
bounding omega, min: -940.7281438 max: 962550 average: 168.9770717
smoothSolver:  Solving for k, Initial residual = 0.03231053147, Final residual = 2.118863593e-08, No Iterations 7
bounding k, min: 0 max: 0.1699351118 average: 0.02738127198
ExecutionTime = 10.28 s  ClockTime = 10 s

Time = 110033

smoothSolver:  Solving for Ux, Initial residual = 0.001130434044, Final residual = 4.272547146e-08, No Iterations 6
smoothSolver:  Solving for Uy, Initial residual = 0.001418505783, Final residual = 3.37808317e-08, No Iterations 6
smoothSolver:  Solving for Uz, Initial residual = 0.007932747017, Final residual = 5.379383613e-08, No Iterations 6
GAMG:  Solving for p, Initial residual = 0.0606598313, Final residual = 9.85982972e-08, No Iterations 282
time step continuity errors : sum local = 6.221762716e-09, global = 1.280519242e-09, cumulative = -8.511111281e-09
smoothSolver:  Solving for omega, Initial residual = 0.245677263, Final residual = 3.757301815e-08, No Iterations 5
bounding omega, min: -389.1920075 max: 962550 average: 152.0536066
smoothSolver:  Solving for k, Initial residual = 0.02786082286, Final residual = 1.951989667e-08, No Iterations 7
bounding k, min: -0.001226064604 max: 0.1735113945 average: 0.02730778371
ExecutionTime = 10.62 s  ClockTime = 11 s

Time = 110034

smoothSolver:  Solving for Ux, Initial residual = 0.0011009228, Final residual = 4.1209309e-08, No Iterations 6
smoothSolver:  Solving for Uy, Initial residual = 0.001438448298, Final residual = 3.088994484e-08, No Iterations 6
smoothSolver:  Solving for Uz, Initial residual = 0.008292266531, Final residual = 5.56807649e-08, No Iterations 6
GAMG:  Solving for p, Initial residual = 0.05931609022, Final residual = 9.5265927e-08, No Iterations 256
time step continuity errors : sum local = 6.019372624e-09, global = 1.612247994e-09, cumulative = -6.898863287e-09
smoothSolver:  Solving for omega, Initial residual = 0.22488753, Final residual = 3.351166425e-08, No Iterations 5
bounding omega, min: -256.6141383 max: 962550 average: 156.1156857
smoothSolver:  Solving for k, Initial residual = 0.02751399382, Final residual = 9.691451742e-08, No Iterations 6
bounding k, min: 0 max: 0.1744066437 average: 0.02724420285
ExecutionTime = 10.92 s  ClockTime = 11 s

Time = 110035

smoothSolver:  Solving for Ux, Initial residual = 0.001100434099, Final residual = 4.01987693e-08, No Iterations 6
smoothSolver:  Solving for Uy, Initial residual = 0.001482773548, Final residual = 3.269805204e-08, No Iterations 6
smoothSolver:  Solving for Uz, Initial residual = 0.008095316453, Final residual = 5.795430044e-08, No Iterations 6
GAMG:  Solving for p, Initial residual = 0.06068672679, Final residual = 9.789549691e-08, No Iterations 288
time step continuity errors : sum local = 6.192611168e-09, global = 1.642363778e-09, cumulative = -5.256499509e-09
smoothSolver:  Solving for omega, Initial residual = 0.2286558502, Final residual = 3.429295258e-08, No Iterations 5
bounding omega, min: -193.074331 max: 962550 average: 154.7677147
smoothSolver:  Solving for k, Initial residual = 0.03021340559, Final residual = 9.688170223e-08, No Iterations 6
bounding k, min: -0.006023437192 max: 0.170324479 average: 0.02718224477
ExecutionTime = 11.24 s  ClockTime = 11 s

Time = 110036

smoothSolver:  Solving for Ux, Initial residual = 0.00111325208, Final residual = 3.930530446e-08, No Iterations 6
smoothSolver:  Solving for Uy, Initial residual = 0.001531422019, Final residual = 3.262807234e-08, No Iterations 6
smoothSolver:  Solving for Uz, Initial residual = 0.008157046183, Final residual = 5.814747231e-08, No Iterations 6
GAMG:  Solving for p, Initial residual = 0.06358242109, Final residual = 9.951220216e-08, No Iterations 289
time step continuity errors : sum local = 6.382877017e-09, global = 1.315165587e-09, cumulative = -3.941333923e-09
smoothSolver:  Solving for omega, Initial residual = 0.2381574676, Final residual = 5.125344808e-08, No Iterations 5
bounding omega, min: -166.4849201 max: 962550 average: 165.2759327
smoothSolver:  Solving for k, Initial residual = 0.03409491958, Final residual = 9.869955623e-08, No Iterations 6
bounding k, min: 0 max: 0.1785673066 average: 0.02707246239
ExecutionTime = 11.58 s  ClockTime = 11 s

Time = 110037

smoothSolver:  Solving for Ux, Initial residual = 0.001128301963, Final residual = 3.891295994e-08, No Iterations 6
smoothSolver:  Solving for Uy, Initial residual = 0.001570661486, Final residual = 3.383805433e-08, No Iterations 6
smoothSolver:  Solving for Uz, Initial residual = 0.008287154033, Final residual = 5.970329179e-08, No Iterations 6
GAMG:  Solving for p, Initial residual = 0.06183634541, Final residual = 9.807746327e-08, No Iterations 270
time step continuity errors : sum local = 6.273999234e-09, global = -1.776754275e-09, cumulative = -5.718088197e-09
smoothSolver:  Solving for omega, Initial residual = 0.2515176841, Final residual = 2.769425534e-08, No Iterations 5
bounding omega, min: -1063.099361 max: 962550 average: 158.0341082
smoothSolver:  Solving for k, Initial residual = 0.02994083438, Final residual = 9.247204081e-08, No Iterations 6
bounding k, min: 0 max: 0.1672681084 average: 0.02698038376
ExecutionTime = 11.9 s  ClockTime = 12 s

Time = 110038

smoothSolver:  Solving for Ux, Initial residual = 0.001116248829, Final residual = 3.756090481e-08, No Iterations 6
smoothSolver:  Solving for Uy, Initial residual = 0.001531359011, Final residual = 3.187455927e-08, No Iterations 6
smoothSolver:  Solving for Uz, Initial residual = 0.007962946304, Final residual = 5.938270209e-08, No Iterations 6
GAMG:  Solving for p, Initial residual = 0.0637509999, Final residual = 9.770826238e-08, No Iterations 271
time step continuity errors : sum local = 6.29553638e-09, global = -1.621705554e-09, cumulative = -7.339793751e-09
smoothSolver:  Solving for omega, Initial residual = 0.23318038, Final residual = 3.025083617e-08, No Iterations 5
bounding omega, min: -393.0397231 max: 962550 average: 157.348437
smoothSolver:  Solving for k, Initial residual = 0.02989285853, Final residual = 8.858433129e-08, No Iterations 6
bounding k, min: 0 max: 0.1824555311 average: 0.02689807861
ExecutionTime = 12.23 s  ClockTime = 12 s

Time = 110039

smoothSolver:  Solving for Ux, Initial residual = 0.001112578335, Final residual = 3.675142255e-08, No Iterations 6
smoothSolver:  Solving for Uy, Initial residual = 0.001592093294, Final residual = 3.301475589e-08, No Iterations 6
smoothSolver:  Solving for Uz, Initial residual = 0.008188606974, Final residual = 6.053944488e-08, No Iterations 6
GAMG:  Solving for p, Initial residual = 0.06063530673, Final residual = 9.979737906e-08, No Iterations 258
time step continuity errors : sum local = 6.415574946e-09, global = 1.768034053e-09, cumulative = -5.571759698e-09
smoothSolver:  Solving for omega, Initial residual = 0.2344811108, Final residual = 3.155553009e-08, No Iterations 5
bounding omega, min: -261.4005062 max: 962550 average: 152.1245891
smoothSolver:  Solving for k, Initial residual = 0.03065145311, Final residual = 8.747395709e-08, No Iterations 6
bounding k, min: -0.002837892396 max: 0.1643684612 average: 0.02686107466
ExecutionTime = 12.53 s  ClockTime = 12 s

Time = 110040

smoothSolver:  Solving for Ux, Initial residual = 0.001122783321, Final residual = 3.616083805e-08, No Iterations 6
smoothSolver:  Solving for Uy, Initial residual = 0.001597643778, Final residual = 3.189718576e-08, No Iterations 6
smoothSolver:  Solving for Uz, Initial residual = 0.008009180264, Final residual = 6.183700024e-08, No Iterations 6
GAMG:  Solving for p, Initial residual = 0.06109107269, Final residual = 9.188190129e-08, No Iterations 269
time step continuity errors : sum local = 5.930499465e-09, global = 1.918453391e-09, cumulative = -3.653306307e-09
smoothSolver:  Solving for omega, Initial residual = 0.2378854404, Final residual = 3.251243582e-08, No Iterations 5
bounding omega, min: -199.628471 max: 962550 average: 166.3059187
smoothSolver:  Solving for k, Initial residual = 0.03337751265, Final residual = 8.749464257e-08, No Iterations 6
bounding k, min: 0 max: 0.1860984106 average: 0.02675810161
ExecutionTime = 12.85 s  ClockTime = 13 s

Time = 110041

smoothSolver:  Solving for Ux, Initial residual = 0.001130572004, Final residual = 3.574662205e-08, No Iterations 6
smoothSolver:  Solving for Uy, Initial residual = 0.001619805829, Final residual = 3.160278519e-08, No Iterations 6
smoothSolver:  Solving for Uz, Initial residual = 0.008359908378, Final residual = 6.05245919e-08, No Iterations 6
GAMG:  Solving for p, Initial residual = 0.06259412159, Final residual = 9.861281911e-08, No Iterations 244
time step continuity errors : sum local = 6.352990783e-09, global = -1.771447661e-09, cumulative = -5.424753967e-09
smoothSolver:  Solving for omega, Initial residual = 0.2393347782, Final residual = 2.391420478e-08, No Iterations 5
bounding omega, min: -154.2090346 max: 962550 average: 154.7401458
smoothSolver:  Solving for k, Initial residual = 0.03157612467, Final residual = 8.389431853e-08, No Iterations 6
bounding k, min: 0 max: 0.1624207766 average: 0.02667574037
ExecutionTime = 13.14 s  ClockTime = 13 s

Time = 110042

smoothSolver:  Solving for Ux, Initial residual = 0.001120901199, Final residual = 3.483484038e-08, No Iterations 6
smoothSolver:  Solving for Uy, Initial residual = 0.001652388133, Final residual = 3.07998208e-08, No Iterations 6
smoothSolver:  Solving for Uz, Initial residual = 0.008053969147, Final residual = 6.315609902e-08, No Iterations 6
GAMG:  Solving for p, Initial residual = 0.06587677439, Final residual = 9.550475985e-08, No Iterations 226
time step continuity errors : sum local = 6.219302503e-09, global = -1.714251095e-09, cumulative = -7.139005062e-09
smoothSolver:  Solving for omega, Initial residual = 0.2264695212, Final residual = 2.894786823e-08, No Iterations 5
bounding omega, min: -933.1400813 max: 962550 average: 158.4887443
smoothSolver:  Solving for k, Initial residual = 0.03222326819, Final residual = 7.974358272e-08, No Iterations 6
bounding k, min: 0 max: 0.1895167612 average: 0.0266023833
ExecutionTime = 13.43 s  ClockTime = 13 s

Time = 110043

smoothSolver:  Solving for Ux, Initial residual = 0.001119330852, Final residual = 3.395112967e-08, No Iterations 6
smoothSolver:  Solving for Uy, Initial residual = 0.001710095442, Final residual = 3.251645749e-08, No Iterations 6
smoothSolver:  Solving for Uz, Initial residual = 0.008185284572, Final residual = 6.495390775e-08, No Iterations 6
GAMG:  Solving for p, Initial residual = 0.0591825975, Final residual = 9.855020492e-08, No Iterations 233
time step continuity errors : sum local = 6.378316386e-09, global = -2.132026916e-09, cumulative = -9.271031978e-09
smoothSolver:  Solving for omega, Initial residual = 0.2402486712, Final residual = 2.473581793e-08, No Iterations 5
bounding omega, min: -360.5838456 max: 962550 average: 158.0064487
smoothSolver:  Solving for k, Initial residual = 0.03170868137, Final residual = 7.850858825e-08, No Iterations 6
bounding k, min: -0.001320190075 max: 0.1652985718 average: 0.02653895656
ExecutionTime = 13.7 s  ClockTime = 14 s

Time = 110044

smoothSolver:  Solving for Ux, Initial residual = 0.001125974316, Final residual = 3.33363807e-08, No Iterations 6
smoothSolver:  Solving for Uy, Initial residual = 0.001692198581, Final residual = 3.189567521e-08, No Iterations 6
smoothSolver:  Solving for Uz, Initial residual = 0.008912999634, Final residual = 6.439049571e-08, No Iterations 6
GAMG:  Solving for p, Initial residual = 0.06235472016, Final residual = 9.36273865e-08, No Iterations 220
time step continuity errors : sum local = 6.0797259e-09, global = 1.437126715e-09, cumulative = -7.833905263e-09
smoothSolver:  Solving for omega, Initial residual = 0.239705606, Final residual = 2.848494281e-08, No Iterations 5
bounding omega, min: -249.9517378 max: 962550 average: 164.2498762
smoothSolver:  Solving for k, Initial residual = 0.03306703061, Final residual = 7.846398466e-08, No Iterations 6
bounding k, min: -0.0001922292296 max: 0.1927359366 average: 0.02643221658
ExecutionTime = 13.97 s  ClockTime = 14 s

Time = 110045

smoothSolver:  Solving for Ux, Initial residual = 0.00112943936, Final residual = 3.293885643e-08, No Iterations 6
smoothSolver:  Solving for Uy, Initial residual = 0.001760708503, Final residual = 3.299161943e-08, No Iterations 6
smoothSolver:  Solving for Uz, Initial residual = 0.008633386092, Final residual = 6.815401738e-08, No Iterations 6
GAMG:  Solving for p, Initial residual = 0.06291551942, Final residual = 9.909833034e-08, No Iterations 214
time step continuity errors : sum local = 6.454177469e-09, global = -1.533464808e-09, cumulative = -9.367370071e-09
smoothSolver:  Solving for omega, Initial residual = 0.2375661793, Final residual = 1.974408522e-08, No Iterations 5
bounding omega, min: -198.5877466 max: 962550 average: 149.689821
smoothSolver:  Solving for k, Initial residual = 0.03071923017, Final residual = 7.561046254e-08, No Iterations 6
bounding k, min: 0 max: 0.1680320471 average: 0.02639745339
ExecutionTime = 14.23 s  ClockTime = 14 s

Time = 110046

smoothSolver:  Solving for Ux, Initial residual = 0.001124536136, Final residual = 3.20722147e-08, No Iterations 6
smoothSolver:  Solving for Uy, Initial residual = 0.001745455436, Final residual = 3.156485737e-08, No Iterations 6
smoothSolver:  Solving for Uz, Initial residual = 0.00850999739, Final residual = 7.080527611e-08, No Iterations 6
GAMG:  Solving for p, Initial residual = 0.06362343566, Final residual = 9.658354006e-08, No Iterations 193
time step continuity errors : sum local = 6.267776159e-09, global = -1.39526977e-09, cumulative = -1.076263984e-08
smoothSolver:  Solving for omega, Initial residual = 0.2264418242, Final residual = 2.310379843e-08, No Iterations 5
bounding omega, min: -171.8497009 max: 962550 average: 164.7879195
smoothSolver:  Solving for k, Initial residual = 0.03450726456, Final residual = 7.108357783e-08, No Iterations 6
bounding k, min: -0.003021641889 max: 0.1957815162 average: 0.02630333417
ExecutionTime = 14.48 s  ClockTime = 14 s

Time = 110047

smoothSolver:  Solving for Ux, Initial residual = 0.001131318372, Final residual = 3.140742286e-08, No Iterations 6
smoothSolver:  Solving for Uy, Initial residual = 0.001785019355, Final residual = 3.12823798e-08, No Iterations 6
smoothSolver:  Solving for Uz, Initial residual = 0.008357267456, Final residual = 7.388256908e-08, No Iterations 6
GAMG:  Solving for p, Initial residual = 0.06193696451, Final residual = 9.877166924e-08, No Iterations 188
time step continuity errors : sum local = 6.425326715e-09, global = 1.343615857e-09, cumulative = -9.419023985e-09
smoothSolver:  Solving for omega, Initial residual = 0.2342187835, Final residual = 1.541373538e-08, No Iterations 5
bounding omega, min: -1173.102633 max: 962550 average: 153.7237506
smoothSolver:  Solving for k, Initial residual = 0.0312484301, Final residual = 7.020585381e-08, No Iterations 6
bounding k, min: 0 max: 0.170641116 average: 0.02623807466
ExecutionTime = 14.72 s  ClockTime = 15 s

Time = 110048

smoothSolver:  Solving for Ux, Initial residual = 0.001128850758, Final residual = 3.064831191e-08, No Iterations 6
smoothSolver:  Solving for Uy, Initial residual = 0.001827118842, Final residual = 3.184249739e-08, No Iterations 6
smoothSolver:  Solving for Uz, Initial residual = 0.008459310243, Final residual = 7.978367008e-08, No Iterations 6
GAMG:  Solving for p, Initial residual = 0.06390753943, Final residual = 9.850405186e-08, No Iterations 252
time step continuity errors : sum local = 6.481109592e-09, global = 1.674856428e-09, cumulative = -7.744167556e-09
smoothSolver:  Solving for omega, Initial residual = 0.2251326288, Final residual = 2.780426134e-08, No Iterations 5
bounding omega, min: -365.0492607 max: 962550 average: 162.2612451
smoothSolver:  Solving for k, Initial residual = 0.03475674697, Final residual = 7.062786169e-08, No Iterations 6
bounding k, min: -0.0009078082439 max: 0.1986815425 average: 0.02615633725
ExecutionTime = 15.03 s  ClockTime = 15 s

Time = 110049

smoothSolver:  Solving for Ux, Initial residual = 0.001134066082, Final residual = 3.024887782e-08, No Iterations 6
smoothSolver:  Solving for Uy, Initial residual = 0.001919842499, Final residual = 3.292088231e-08, No Iterations 6
smoothSolver:  Solving for Uz, Initial residual = 0.009016740666, Final residual = 8.188058127e-08, No Iterations 6
GAMG:  Solving for p, Initial residual = 0.05952314577, Final residual = 9.689433976e-08, No Iterations 215
time step continuity errors : sum local = 6.305872983e-09, global = 1.650383341e-09, cumulative = -6.093784216e-09
smoothSolver:  Solving for omega, Initial residual = 0.2454203139, Final residual = 1.920536922e-08, No Iterations 5
bounding omega, min: -258.4744765 max: 962550 average: 157.4158274
smoothSolver:  Solving for k, Initial residual = 0.03347799547, Final residual = 6.891651835e-08, No Iterations 6
bounding k, min: -0.001762902428 max: 0.1731489615 average: 0.02609373213
ExecutionTime = 15.3 s  ClockTime = 15 s

Time = 110050

smoothSolver:  Solving for Ux, Initial residual = 0.001131978272, Final residual = 2.957503377e-08, No Iterations 6
smoothSolver:  Solving for Uy, Initial residual = 0.001879137225, Final residual = 3.218054881e-08, No Iterations 6
smoothSolver:  Solving for Uz, Initial residual = 0.008820175826, Final residual = 8.119216996e-08, No Iterations 6
GAMG:  Solving for p, Initial residual = 0.06200484585, Final residual = 9.780344641e-08, No Iterations 201
time step continuity errors : sum local = 6.404054542e-09, global = 1.659165078e-09, cumulative = -4.434619138e-09
smoothSolver:  Solving for omega, Initial residual = 0.2373742793, Final residual = 1.909457774e-08, No Iterations 5
bounding omega, min: -215.5748553 max: 962550 average: 162.6788071
smoothSolver:  Solving for k, Initial residual = 0.03545927319, Final residual = 6.70653904e-08, No Iterations 6
bounding k, min: 0 max: 0.2014583995 average: 0.02600670166
ExecutionTime = 15.55 s  ClockTime = 15 s

Time = 110051

smoothSolver:  Solving for Ux, Initial residual = 0.001134833612, Final residual = 2.908203562e-08, No Iterations 6
smoothSolver:  Solving for Uy, Initial residual = 0.001928880483, Final residual = 3.382760882e-08, No Iterations 6
smoothSolver:  Solving for Uz, Initial residual = 0.008681867117, Final residual = 7.892384886e-08, No Iterations 6
GAMG:  Solving for p, Initial residual = 0.06396478305, Final residual = 9.877657362e-08, No Iterations 218
time step continuity errors : sum local = 6.437775133e-09, global = 1.814058899e-09, cumulative = -2.620560238e-09
smoothSolver:  Solving for omega, Initial residual = 0.2404526666, Final residual = 1.906943604e-08, No Iterations 5
bounding omega, min: -182.0482164 max: 962550 average: 158.7627552
smoothSolver:  Solving for k, Initial residual = 0.03489241498, Final residual = 6.489717071e-08, No Iterations 6
bounding k, min: -0.001867272257 max: 0.1755622979 average: 0.02593646729
ExecutionTime = 15.82 s  ClockTime = 16 s

Time = 110052

smoothSolver:  Solving for Ux, Initial residual = 0.001138926478, Final residual = 2.843202908e-08, No Iterations 6
smoothSolver:  Solving for Uy, Initial residual = 0.001933192887, Final residual = 3.239768616e-08, No Iterations 6
smoothSolver:  Solving for Uz, Initial residual = 0.008434547233, Final residual = 7.833106869e-08, No Iterations 6
GAMG:  Solving for p, Initial residual = 0.06351975935, Final residual = 9.622583964e-08, No Iterations 230
time step continuity errors : sum local = 6.310382416e-09, global = 1.70456778e-09, cumulative = -9.159924584e-10
smoothSolver:  Solving for omega, Initial residual = 0.2351372229, Final residual = 1.595207527e-08, No Iterations 5
bounding omega, min: -902.3473986 max: 962550 average: 161.9827995
smoothSolver:  Solving for k, Initial residual = 0.03220644341, Final residual = 6.348275645e-08, No Iterations 6
bounding k, min: 0 max: 0.2041274642 average: 0.02584625745
ExecutionTime = 16.1 s  ClockTime = 16 s

Time = 110053

smoothSolver:  Solving for Ux, Initial residual = 0.001133933994, Final residual = 2.782916363e-08, No Iterations 6
smoothSolver:  Solving for Uy, Initial residual = 0.00194871705, Final residual = 3.177762349e-08, No Iterations 6
smoothSolver:  Solving for Uz, Initial residual = 0.008565641755, Final residual = 7.698177179e-08, No Iterations 6
GAMG:  Solving for p, Initial residual = 0.05982638948, Final residual = 9.686971465e-08, No Iterations 206
time step continuity errors : sum local = 6.348129387e-09, global = 1.677514147e-09, cumulative = 7.615216882e-10
smoothSolver:  Solving for omega, Initial residual = 0.2283745882, Final residual = 1.537270723e-08, No Iterations 5
bounding omega, min: -336.5826472 max: 962550 average: 153.6535481
smoothSolver:  Solving for k, Initial residual = 0.03295698532, Final residual = 6.26568694e-08, No Iterations 6
bounding k, min: -0.001057401796 max: 0.1779069228 average: 0.02579911516
ExecutionTime = 16.36 s  ClockTime = 16 s

Time = 110054

smoothSolver:  Solving for Ux, Initial residual = 0.00113698915, Final residual = 2.710212224e-08, No Iterations 6
smoothSolver:  Solving for Uy, Initial residual = 0.001968444588, Final residual = 3.142734636e-08, No Iterations 6
smoothSolver:  Solving for Uz, Initial residual = 0.008539731182, Final residual = 7.505338664e-08, No Iterations 6
GAMG:  Solving for p, Initial residual = 0.05925094816, Final residual = 9.525380031e-08, No Iterations 251
time step continuity errors : sum local = 6.250312121e-09, global = 1.620223442e-09, cumulative = 2.38174513e-09
smoothSolver:  Solving for omega, Initial residual = 0.231269619, Final residual = 2.027318136e-08, No Iterations 5
bounding omega, min: -253.3205522 max: 962550 average: 163.1056081
smoothSolver:  Solving for k, Initial residual = 0.03513341541, Final residual = 6.106767934e-08, No Iterations 6
bounding k, min: -9.343137701e-05 max: 0.2067119729 average: 0.02571712915
ExecutionTime = 16.67 s  ClockTime = 17 s

Time = 110055

smoothSolver:  Solving for Ux, Initial residual = 0.001140956669, Final residual = 2.66465943e-08, No Iterations 6
smoothSolver:  Solving for Uy, Initial residual = 0.001996085082, Final residual = 3.111082647e-08, No Iterations 6
smoothSolver:  Solving for Uz, Initial residual = 0.008754791317, Final residual = 7.128265896e-08, No Iterations 6
GAMG:  Solving for p, Initial residual = 0.06150100889, Final residual = 9.77934814e-08, No Iterations 199
time step continuity errors : sum local = 6.401527128e-09, global = 1.298411388e-09, cumulative = 3.680156518e-09
smoothSolver:  Solving for omega, Initial residual = 0.2406254563, Final residual = 1.581070348e-08, No Iterations 5
bounding omega, min: -209.4597826 max: 962550 average: 157.5884846
smoothSolver:  Solving for k, Initial residual = 0.03468905421, Final residual = 6.00845724e-08, No Iterations 6
bounding k, min: 0 max: 0.1802118288 average: 0.0256450955
ExecutionTime = 16.93 s  ClockTime = 17 s

Time = 110056

smoothSolver:  Solving for Ux, Initial residual = 0.001141018204, Final residual = 2.604628004e-08, No Iterations 6
smoothSolver:  Solving for Uy, Initial residual = 0.001978382736, Final residual = 2.886245919e-08, No Iterations 6
smoothSolver:  Solving for Uz, Initial residual = 0.009067599667, Final residual = 6.975674537e-08, No Iterations 6
GAMG:  Solving for p, Initial residual = 0.06124735656, Final residual = 9.704240333e-08, No Iterations 196
time step continuity errors : sum local = 6.370187231e-09, global = 1.352383214e-09, cumulative = 5.032539732e-09
smoothSolver:  Solving for omega, Initial residual = 0.2332295546, Final residual = 1.785095749e-08, No Iterations 5
bounding omega, min: -184.7266885 max: 962550 average: 161.9009838
smoothSolver:  Solving for k, Initial residual = 0.03499735458, Final residual = 5.865093864e-08, No Iterations 6
bounding k, min: 0 max: 0.2092473171 average: 0.02557372597
ExecutionTime = 17.17 s  ClockTime = 17 s

Time = 110057

smoothSolver:  Solving for Ux, Initial residual = 0.001143903347, Final residual = 2.54656557e-08, No Iterations 6
smoothSolver:  Solving for Uy, Initial residual = 0.002023122629, Final residual = 2.984101577e-08, No Iterations 6
smoothSolver:  Solving for Uz, Initial residual = 0.008999533204, Final residual = 6.721201523e-08, No Iterations 6
GAMG:  Solving for p, Initial residual = 0.06169748979, Final residual = 9.46287807e-08, No Iterations 232
time step continuity errors : sum local = 6.223195673e-09, global = 1.524833667e-09, cumulative = 6.557373399e-09
smoothSolver:  Solving for omega, Initial residual = 0.2362566239, Final residual = 1.462156649e-08, No Iterations 5
bounding omega, min: -1121.134922 max: 962550 average: 160.5009709
smoothSolver:  Solving for k, Initial residual = 0.0356302181, Final residual = 5.715068746e-08, No Iterations 6
bounding k, min: -0.0003899912457 max: 0.1824991065 average: 0.02550247793
ExecutionTime = 17.44 s  ClockTime = 17 s

Time = 110058

smoothSolver:  Solving for Ux, Initial residual = 0.001146798996, Final residual = 2.501115725e-08, No Iterations 6
smoothSolver:  Solving for Uy, Initial residual = 0.00205437829, Final residual = 2.731561171e-08, No Iterations 6
smoothSolver:  Solving for Uz, Initial residual = 0.008721457151, Final residual = 6.646103049e-08, No Iterations 6
GAMG:  Solving for p, Initial residual = 0.06173072478, Final residual = 9.658076608e-08, No Iterations 208
time step continuity errors : sum local = 6.40064975e-09, global = -1.321614773e-09, cumulative = 5.235758626e-09
smoothSolver:  Solving for omega, Initial residual = 0.2316342112, Final residual = 9.702569285e-08, No Iterations 4
bounding omega, min: -356.7765001 max: 962550 average: 161.5739419
smoothSolver:  Solving for k, Initial residual = 0.03462126018, Final residual = 5.515369532e-08, No Iterations 6
bounding k, min: -0.0008140479035 max: 0.211758895 average: 0.02541621389
ExecutionTime = 17.7 s  ClockTime = 18 s

Time = 110059

smoothSolver:  Solving for Ux, Initial residual = 0.001142373962, Final residual = 2.433045833e-08, No Iterations 6
smoothSolver:  Solving for Uy, Initial residual = 0.002044852815, Final residual = 2.740302241e-08, No Iterations 6
smoothSolver:  Solving for Uz, Initial residual = 0.008699157677, Final residual = 6.491719264e-08, No Iterations 6
GAMG:  Solving for p, Initial residual = 0.05854657932, Final residual = 9.957081397e-08, No Iterations 237
time step continuity errors : sum local = 6.512586679e-09, global = 1.712284198e-09, cumulative = 6.948042825e-09
smoothSolver:  Solving for omega, Initial residual = 0.2281890082, Final residual = 8.382965957e-08, No Iterations 4
bounding omega, min: -262.9087405 max: 962550 average: 154.300751
smoothSolver:  Solving for k, Initial residual = 0.03488475535, Final residual = 5.359213175e-08, No Iterations 6
bounding k, min: -0.001431920523 max: 0.1847882882 average: 0.02537907762
ExecutionTime = 17.98 s  ClockTime = 18 s

Time = 110060

smoothSolver:  Solving for Ux, Initial residual = 0.001143743878, Final residual = 2.365377008e-08, No Iterations 6
smoothSolver:  Solving for Uy, Initial residual = 0.002025292828, Final residual = 2.686055781e-08, No Iterations 6
smoothSolver:  Solving for Uz, Initial residual = 0.008492572553, Final residual = 5.982603639e-08, No Iterations 6
GAMG:  Solving for p, Initial residual = 0.06394293022, Final residual = 9.895534408e-08, No Iterations 242
time step continuity errors : sum local = 6.538926295e-09, global = 1.70118247e-09, cumulative = 8.649225294e-09
smoothSolver:  Solving for omega, Initial residual = 0.2304882125, Final residual = 2.078576687e-08, No Iterations 5
bounding omega, min: -214.3041169 max: 962550 average: 167.5331262
smoothSolver:  Solving for k, Initial residual = 0.03973680821, Final residual = 5.431759065e-08, No Iterations 6
bounding k, min: 0 max: 0.2142577827 average: 0.02527563036
ExecutionTime = 18.27 s  ClockTime = 18 s

Time = 110061

smoothSolver:  Solving for Ux, Initial residual = 0.001148985634, Final residual = 2.345408658e-08, No Iterations 6
smoothSolver:  Solving for Uy, Initial residual = 0.00207099006, Final residual = 2.865586005e-08, No Iterations 6
smoothSolver:  Solving for Uz, Initial residual = 0.008708184066, Final residual = 5.919742686e-08, No Iterations 6
GAMG:  Solving for p, Initial residual = 0.0575963918, Final residual = 8.971616199e-08, No Iterations 194
time step continuity errors : sum local = 5.863672315e-09, global = 1.581362778e-09, cumulative = 1.023058807e-08
smoothSolver:  Solving for omega, Initial residual = 0.2464478556, Final residual = 9.641591473e-08, No Iterations 4
bounding omega, min: -178.0404833 max: 962550 average: 158.2691276
smoothSolver:  Solving for k, Initial residual = 0.03644661634, Final residual = 5.302762212e-08, No Iterations 6
bounding k, min: 0 max: 0.1870865594 average: 0.02520292827
ExecutionTime = 18.51 s  ClockTime = 18 s

Time = 110062

smoothSolver:  Solving for Ux, Initial residual = 0.00113991315, Final residual = 2.274187626e-08, No Iterations 6
smoothSolver:  Solving for Uy, Initial residual = 0.002025155529, Final residual = 2.566879898e-08, No Iterations 6
smoothSolver:  Solving for Uz, Initial residual = 0.008587889196, Final residual = 6.207888523e-08, No Iterations 6
GAMG:  Solving for p, Initial residual = 0.06017077176, Final residual = 9.744862837e-08, No Iterations 185
time step continuity errors : sum local = 6.404763838e-09, global = 1.502098288e-09, cumulative = 1.173268636e-08
smoothSolver:  Solving for omega, Initial residual = 0.2356991874, Final residual = 8.581203604e-08, No Iterations 4
bounding omega, min: -866.2736864 max: 962550 average: 163.311846
smoothSolver:  Solving for k, Initial residual = 0.03637674192, Final residual = 4.984974361e-08, No Iterations 6
bounding k, min: 0 max: 0.2167470313 average: 0.0251369838
ExecutionTime = 18.74 s  ClockTime = 19 s

Time = 110063

smoothSolver:  Solving for Ux, Initial residual = 0.001139218394, Final residual = 2.21342429e-08, No Iterations 6
smoothSolver:  Solving for Uy, Initial residual = 0.002044104747, Final residual = 2.53677243e-08, No Iterations 6
smoothSolver:  Solving for Uz, Initial residual = 0.008493614571, Final residual = 6.493956792e-08, No Iterations 6
GAMG:  Solving for p, Initial residual = 0.05816411133, Final residual = 9.792553125e-08, No Iterations 253
time step continuity errors : sum local = 6.44247036e-09, global = 1.699459707e-09, cumulative = 1.343214607e-08
smoothSolver:  Solving for omega, Initial residual = 0.2359289652, Final residual = 9.10564844e-08, No Iterations 4
bounding omega, min: -348.0615727 max: 962550 average: 161.7876472
smoothSolver:  Solving for k, Initial residual = 0.03733681243, Final residual = 4.926356967e-08, No Iterations 6
bounding k, min: -0.00156517732 max: 0.1894015344 average: 0.02506402311
ExecutionTime = 19.05 s  ClockTime = 19 s

Time = 110064

smoothSolver:  Solving for Ux, Initial residual = 0.001140529082, Final residual = 2.178708963e-08, No Iterations 6
smoothSolver:  Solving for Uy, Initial residual = 0.002013062041, Final residual = 2.332548868e-08, No Iterations 6
smoothSolver:  Solving for Uz, Initial residual = 0.008646874731, Final residual = 6.554280586e-08, No Iterations 6
GAMG:  Solving for p, Initial residual = 0.05556926093, Final residual = 9.994847313e-08, No Iterations 228
time step continuity errors : sum local = 6.567702125e-09, global = 1.801093678e-09, cumulative = 1.523323975e-08
smoothSolver:  Solving for omega, Initial residual = 0.2340024506, Final residual = 8.033898464e-08, No Iterations 4
bounding omega, min: -250.1873308 max: 962550 average: 160.3703129
smoothSolver:  Solving for k, Initial residual = 0.03508174966, Final residual = 4.825416261e-08, No Iterations 6
bounding k, min: 0 max: 0.2192348479 average: 0.02497794625
ExecutionTime = 19.32 s  ClockTime = 19 s

Time = 110065

smoothSolver:  Solving for Ux, Initial residual = 0.001135869246, Final residual = 2.110322926e-08, No Iterations 6
smoothSolver:  Solving for Uy, Initial residual = 0.00199397106, Final residual = 2.221695348e-08, No Iterations 6
smoothSolver:  Solving for Uz, Initial residual = 0.008673754755, Final residual = 6.529699869e-08, No Iterations 6
GAMG:  Solving for p, Initial residual = 0.05824585321, Final residual = 9.635616687e-08, No Iterations 224
time step continuity errors : sum local = 6.268587326e-09, global = 1.46741974e-09, cumulative = 1.670065948e-08
smoothSolver:  Solving for omega, Initial residual = 0.2269636754, Final residual = 7.319292963e-08, No Iterations 4
bounding omega, min: -197.7459055 max: 962550 average: 154.0688558
smoothSolver:  Solving for k, Initial residual = 0.03470105944, Final residual = 4.699025595e-08, No Iterations 6
bounding k, min: -0.005510349871 max: 0.1917427506 average: 0.02493417834
ExecutionTime = 19.59 s  ClockTime = 20 s

Time = 110066

smoothSolver:  Solving for Ux, Initial residual = 0.001135373243, Final residual = 2.050532638e-08, No Iterations 6
smoothSolver:  Solving for Uy, Initial residual = 0.002025915148, Final residual = 2.367195258e-08, No Iterations 6
smoothSolver:  Solving for Uz, Initial residual = 0.008498176625, Final residual = 6.588004837e-08, No Iterations 6
GAMG:  Solving for p, Initial residual = 0.05836055869, Final residual = 9.926569865e-08, No Iterations 226
time step continuity errors : sum local = 6.509837343e-09, global = 1.729177714e-09, cumulative = 1.84298372e-08
smoothSolver:  Solving for omega, Initial residual = 0.2249328604, Final residual = 9.435218592e-08, No Iterations 4
bounding omega, min: -175.3495546 max: 962550 average: 160.5506612
smoothSolver:  Solving for k, Initial residual = 0.03575538732, Final residual = 4.578518855e-08, No Iterations 6
bounding k, min: 0 max: 0.221724559 average: 0.02486675942
ExecutionTime = 19.86 s  ClockTime = 20 s

Time = 110067

smoothSolver:  Solving for Ux, Initial residual = 0.001136062895, Final residual = 2.015957962e-08, No Iterations 6
smoothSolver:  Solving for Uy, Initial residual = 0.00203873751, Final residual = 2.273228438e-08, No Iterations 6
smoothSolver:  Solving for Uz, Initial residual = 0.008696941604, Final residual = 6.641212698e-08, No Iterations 6
GAMG:  Solving for p, Initial residual = 0.05811853589, Final residual = 9.473943693e-08, No Iterations 197
time step continuity errors : sum local = 6.190395892e-09, global = 1.203577443e-09, cumulative = 1.963341464e-08
smoothSolver:  Solving for omega, Initial residual = 0.2325922959, Final residual = 8.762556661e-08, No Iterations 4
bounding omega, min: -1106.307064 max: 962550 average: 159.3198605
smoothSolver:  Solving for k, Initial residual = 0.03810951158, Final residual = 4.548354236e-08, No Iterations 6
bounding k, min: 0 max: 0.1941183435 average: 0.02481778892
ExecutionTime = 20.1 s  ClockTime = 20 s

Time = 110068

smoothSolver:  Solving for Ux, Initial residual = 0.001135108312, Final residual = 1.960163296e-08, No Iterations 6
smoothSolver:  Solving for Uy, Initial residual = 0.001990429023, Final residual = 2.098929502e-08, No Iterations 6
smoothSolver:  Solving for Uz, Initial residual = 0.008962255728, Final residual = 6.838275932e-08, No Iterations 6
GAMG:  Solving for p, Initial residual = 0.06014575202, Final residual = 9.621577372e-08, No Iterations 243
time step continuity errors : sum local = 6.328042619e-09, global = 1.656522323e-09, cumulative = 2.128993697e-08
smoothSolver:  Solving for omega, Initial residual = 0.2346937132, Final residual = 1.507292393e-08, No Iterations 5
bounding omega, min: -380.9181861 max: 962550 average: 169.1862502
smoothSolver:  Solving for k, Initial residual = 0.04179482252, Final residual = 4.478915695e-08, No Iterations 6
bounding k, min: 0 max: 0.2242281199 average: 0.02473232527
ExecutionTime = 20.39 s  ClockTime = 20 s

Time = 110069

smoothSolver:  Solving for Ux, Initial residual = 0.001144200733, Final residual = 1.933300031e-08, No Iterations 6
smoothSolver:  Solving for Uy, Initial residual = 0.002017364113, Final residual = 2.084902928e-08, No Iterations 6
smoothSolver:  Solving for Uz, Initial residual = 0.009052064359, Final residual = 6.703123197e-08, No Iterations 6
GAMG:  Solving for p, Initial residual = 0.06036343541, Final residual = 9.795755687e-08, No Iterations 169
time step continuity errors : sum local = 6.470733249e-09, global = -1.405141439e-09, cumulative = 1.988479553e-08
smoothSolver:  Solving for omega, Initial residual = 0.2434858783, Final residual = 7.202471936e-08, No Iterations 4
bounding omega, min: -258.8744403 max: 962550 average: 161.5700933
smoothSolver:  Solving for k, Initial residual = 0.04019271812, Final residual = 4.368293549e-08, No Iterations 6
bounding k, min: -0.003007219703 max: 0.1965448929 average: 0.02464835886
ExecutionTime = 20.61 s  ClockTime = 21 s

Time = 110070

smoothSolver:  Solving for Ux, Initial residual = 0.001130347609, Final residual = 1.894254888e-08, No Iterations 6
smoothSolver:  Solving for Uy, Initial residual = 0.001982085635, Final residual = 1.945813634e-08, No Iterations 6
smoothSolver:  Solving for Uz, Initial residual = 0.008761506869, Final residual = 6.594925318e-08, No Iterations 6
GAMG:  Solving for p, Initial residual = 0.05860582172, Final residual = 9.441079193e-08, No Iterations 225
time step continuity errors : sum local = 6.215207962e-09, global = -1.569879038e-09, cumulative = 1.831491649e-08
smoothSolver:  Solving for omega, Initial residual = 0.2352232877, Final residual = 6.167170125e-08, No Iterations 4
bounding omega, min: -204.0808097 max: 962550 average: 161.2120428
smoothSolver:  Solving for k, Initial residual = 0.03723903171, Final residual = 4.19110168e-08, No Iterations 6
bounding k, min: 0 max: 0.2267535717 average: 0.02456103103
ExecutionTime = 20.88 s  ClockTime = 21 s

Time = 110071

smoothSolver:  Solving for Ux, Initial residual = 0.001120633928, Final residual = 9.875852914e-08, No Iterations 5
smoothSolver:  Solving for Uy, Initial residual = 0.001971044799, Final residual = 1.992393628e-08, No Iterations 6
smoothSolver:  Solving for Uz, Initial residual = 0.008699701507, Final residual = 6.486388786e-08, No Iterations 6
GAMG:  Solving for p, Initial residual = 0.05217955595, Final residual = 9.74090844e-08, No Iterations 191
time step continuity errors : sum local = 6.334254001e-09, global = 1.351093268e-09, cumulative = 1.966600976e-08
smoothSolver:  Solving for omega, Initial residual = 0.2269408565, Final residual = 7.612313891e-08, No Iterations 4
bounding omega, min: -163.9120078 max: 962550 average: 154.8787729
smoothSolver:  Solving for k, Initial residual = 0.03519506175, Final residual = 4.07292666e-08, No Iterations 6
bounding k, min: 0 max: 0.1990346651 average: 0.02451822882
ExecutionTime = 21.13 s  ClockTime = 21 s

Time = 110072

smoothSolver:  Solving for Ux, Initial residual = 0.001120506783, Final residual = 9.569349925e-08, No Iterations 5
smoothSolver:  Solving for Uy, Initial residual = 0.001930597215, Final residual = 9.993085893e-08, No Iterations 5
smoothSolver:  Solving for Uz, Initial residual = 0.00861959327, Final residual = 6.394944568e-08, No Iterations 6
GAMG:  Solving for p, Initial residual = 0.05782361889, Final residual = 9.831869656e-08, No Iterations 247
time step continuity errors : sum local = 6.441497064e-09, global = 1.800271471e-09, cumulative = 2.146628123e-08
smoothSolver:  Solving for omega, Initial residual = 0.2303199046, Final residual = 8.364214987e-08, No Iterations 4
bounding omega, min: -217.796174 max: 962550 average: 164.7908473
smoothSolver:  Solving for k, Initial residual = 0.03866145947, Final residual = 3.973934123e-08, No Iterations 6
bounding k, min: 0 max: 0.2293093463 average: 0.02444865719
ExecutionTime = 21.43 s  ClockTime = 21 s

Time = 110073

smoothSolver:  Solving for Ux, Initial residual = 0.001126203454, Final residual = 9.423826608e-08, No Iterations 5
smoothSolver:  Solving for Uy, Initial residual = 0.001934971551, Final residual = 9.863881337e-08, No Iterations 5
smoothSolver:  Solving for Uz, Initial residual = 0.008699514482, Final residual = 6.394182464e-08, No Iterations 6
GAMG:  Solving for p, Initial residual = 0.05753920511, Final residual = 9.694837455e-08, No Iterations 256
time step continuity errors : sum local = 6.375856521e-09, global = 1.44142464e-09, cumulative = 2.290770587e-08
smoothSolver:  Solving for omega, Initial residual = 0.2391263251, Final residual = 9.079602144e-08, No Iterations 4
bounding omega, min: -173.1611263 max: 962550 average: 161.6767573
smoothSolver:  Solving for k, Initial residual = 0.04106466399, Final residual = 4.013761232e-08, No Iterations 6
bounding k, min: -0.004657554485 max: 0.2016023843 average: 0.02439391784
ExecutionTime = 21.73 s  ClockTime = 22 s

Time = 110074

smoothSolver:  Solving for Ux, Initial residual = 0.001129423646, Final residual = 9.248749612e-08, No Iterations 5
smoothSolver:  Solving for Uy, Initial residual = 0.001933584889, Final residual = 9.7711295e-08, No Iterations 5
smoothSolver:  Solving for Uz, Initial residual = 0.008804736709, Final residual = 6.56514417e-08, No Iterations 6
GAMG:  Solving for p, Initial residual = 0.0603288495, Final residual = 9.662998521e-08, No Iterations 214
time step continuity errors : sum local = 6.359355599e-09, global = 1.445512074e-09, cumulative = 2.435321794e-08
smoothSolver:  Solving for omega, Initial residual = 0.2402378839, Final residual = 7.924741157e-08, No Iterations 4
bounding omega, min: -791.5634942 max: 962550 average: 167.4454264
smoothSolver:  Solving for k, Initial residual = 0.0409900932, Final residual = 3.801981167e-08, No Iterations 6
bounding k, min: 0 max: 0.2319052436 average: 0.02430066526
ExecutionTime = 22 s  ClockTime = 22 s

Time = 110075

smoothSolver:  Solving for Ux, Initial residual = 0.001122614679, Final residual = 9.090498319e-08, No Iterations 5
smoothSolver:  Solving for Uy, Initial residual = 0.001909163407, Final residual = 9.980143817e-08, No Iterations 5
smoothSolver:  Solving for Uz, Initial residual = 0.008396526167, Final residual = 6.282134456e-08, No Iterations 6
GAMG:  Solving for p, Initial residual = 0.0580359608, Final residual = 9.956237316e-08, No Iterations 228
time step continuity errors : sum local = 6.536280305e-09, global = 1.535680143e-09, cumulative = 2.588889808e-08
smoothSolver:  Solving for omega, Initial residual = 0.2381777884, Final residual = 6.490476078e-08, No Iterations 4
bounding omega, min: -339.3254086 max: 962550 average: 157.6813936
smoothSolver:  Solving for k, Initial residual = 0.03881556116, Final residual = 3.731714e-08, No Iterations 6
bounding k, min: -4.664875121e-05 max: 0.204271456 average: 0.02424406283
ExecutionTime = 22.28 s  ClockTime = 22 s

Time = 110076

smoothSolver:  Solving for Ux, Initial residual = 0.001117677349, Final residual = 8.942178023e-08, No Iterations 5
smoothSolver:  Solving for Uy, Initial residual = 0.001893090138, Final residual = 9.465664298e-08, No Iterations 5
smoothSolver:  Solving for Uz, Initial residual = 0.008646597098, Final residual = 6.068103562e-08, No Iterations 6
GAMG:  Solving for p, Initial residual = 0.05689058398, Final residual = 9.852691667e-08, No Iterations 229
time step continuity errors : sum local = 6.458297119e-09, global = 1.625936984e-09, cumulative = 2.751483507e-08
smoothSolver:  Solving for omega, Initial residual = 0.2308274221, Final residual = 6.939655397e-08, No Iterations 4
bounding omega, min: -243.7999025 max: 962550 average: 163.7512271
smoothSolver:  Solving for k, Initial residual = 0.03820034254, Final residual = 3.600537866e-08, No Iterations 6
bounding k, min: 0 max: 0.2345574661 average: 0.02417503065
ExecutionTime = 22.55 s  ClockTime = 23 s

Time = 110077

smoothSolver:  Solving for Ux, Initial residual = 0.001109508632, Final residual = 8.716576869e-08, No Iterations 5
smoothSolver:  Solving for Uy, Initial residual = 0.001900609835, Final residual = 9.326625201e-08, No Iterations 5
smoothSolver:  Solving for Uz, Initial residual = 0.008489154581, Final residual = 5.97001268e-08, No Iterations 6
GAMG:  Solving for p, Initial residual = 0.05677212656, Final residual = 9.902037472e-08, No Iterations 181
time step continuity errors : sum local = 6.472324017e-09, global = 1.382781815e-09, cumulative = 2.889761688e-08
smoothSolver:  Solving for omega, Initial residual = 0.2304586482, Final residual = 5.912343152e-08, No Iterations 4
bounding omega, min: -195.2295862 max: 962550 average: 156.1161576
smoothSolver:  Solving for k, Initial residual = 0.03871960632, Final residual = 3.539189895e-08, No Iterations 6
bounding k, min: -0.003993859766 max: 0.2070661177 average: 0.02414414672
ExecutionTime = 22.8 s  ClockTime = 23 s

Time = 110078

smoothSolver:  Solving for Ux, Initial residual = 0.00111089338, Final residual = 8.469203127e-08, No Iterations 5
smoothSolver:  Solving for Uy, Initial residual = 0.001846002003, Final residual = 8.73940929e-08, No Iterations 5
smoothSolver:  Solving for Uz, Initial residual = 0.008098905498, Final residual = 5.773206597e-08, No Iterations 6
GAMG:  Solving for p, Initial residual = 0.05796020198, Final residual = 9.563585753e-08, No Iterations 241
time step continuity errors : sum local = 6.302274026e-09, global = 1.568328205e-09, cumulative = 3.046594509e-08
smoothSolver:  Solving for omega, Initial residual = 0.233151737, Final residual = 9.98486934e-08, No Iterations 4
bounding omega, min: -178.0781717 max: 962550 average: 170.0281042
smoothSolver:  Solving for k, Initial residual = 0.04365499808, Final residual = 3.528846057e-08, No Iterations 6
bounding k, min: 0 max: 0.2372661974 average: 0.02405952847
ExecutionTime = 23.08 s  ClockTime = 23 s

Time = 110079

smoothSolver:  Solving for Ux, Initial residual = 0.001113901505, Final residual = 8.381847764e-08, No Iterations 5
smoothSolver:  Solving for Uy, Initial residual = 0.001836196343, Final residual = 8.846265994e-08, No Iterations 5
smoothSolver:  Solving for Uz, Initial residual = 0.008402405136, Final residual = 5.70207254e-08, No Iterations 6
GAMG:  Solving for p, Initial residual = 0.05601420136, Final residual = 9.475303208e-08, No Iterations 180
time step continuity errors : sum local = 6.203068422e-09, global = 1.226193249e-09, cumulative = 3.169213834e-08
smoothSolver:  Solving for omega, Initial residual = 0.2464812287, Final residual = 6.742488207e-08, No Iterations 4
[...]
smoothSolver:  Solving for Uy, Initial residual = 0.0003854262256, Final residual = 9.889154468e-08, No Iterations 4
smoothSolver:  Solving for Uz, Initial residual = 0.004254626606, Final residual = 5.00335412e-08, No Iterations 5
GAMG:  Solving for p, Initial residual = 0.04382553427, Final residual = 8.090409553e-08, No Iterations 194
time step continuity errors : sum local = 6.218438994e-09, global = 1.850021112e-09, cumulative = -4.0291323e-07
smoothSolver:  Solving for omega, Initial residual = 0.2349250766, Final residual = 2.209748881e-08, No Iterations 4
bounding omega, min: -1048.320881 max: 962550 average: 169.1218176
smoothSolver:  Solving for k, Initial residual = 0.04281772354, Final residual = 5.836578743e-08, No Iterations 4
bounding k, min: 0 max: 0.2938148302 average: 0.01443070168
ExecutionTime = 893.35 s  ClockTime = 901 s

Time = 113754

smoothSolver:  Solving for Ux, Initial residual = 0.0001548190916, Final residual = 1.502979881e-08, No Iterations 4
smoothSolver:  Solving for Uy, Initial residual = 0.0003706350297, Final residual = 9.008070376e-08, No Iterations 4
smoothSolver:  Solving for Uz, Initial residual = 0.004140619755, Final residual = 4.450852527e-08, No Iterations 5
GAMG:  Solving for p, Initial residual = 0.04355241999, Final residual = 9.783750677e-08, No Iterations 201
time step continuity errors : sum local = 7.604569773e-09, global = 2.44065798e-09, cumulative = -4.00472572e-07
smoothSolver:  Solving for omega, Initial residual = 0.2371277084, Final residual = 3.218493687e-08, No Iterations 4
bounding omega, min: -370.3655618 max: 962550 average: 171.976462
smoothSolver:  Solving for k, Initial residual = 0.04456023477, Final residual = 6.546468248e-08, No Iterations 4
bounding k, min: -0.001360942256 max: 0.2939573156 average: 0.01440814883
ExecutionTime = 893.61 s  ClockTime = 901 s

Time = 113755

smoothSolver:  Solving for Ux, Initial residual = 0.0001541862307, Final residual = 1.489697949e-08, No Iterations 4
smoothSolver:  Solving for Uy, Initial residual = 0.0003814037218, Final residual = 9.73095123e-08, No Iterations 4
smoothSolver:  Solving for Uz, Initial residual = 0.004067498171, Final residual = 4.71988224e-08, No Iterations 5
GAMG:  Solving for p, Initial residual = 0.04264237934, Final residual = 9.581646005e-08, No Iterations 180
time step continuity errors : sum local = 7.413219355e-09, global = -2.052809037e-09, cumulative = -4.02525381e-07
smoothSolver:  Solving for omega, Initial residual = 0.242202503, Final residual = 2.052971429e-08, No Iterations 4
bounding omega, min: -261.4903932 max: 962550 average: 167.0197573
smoothSolver:  Solving for k, Initial residual = 0.04183905208, Final residual = 5.376516508e-08, No Iterations 4
bounding k, min: -0.001180219222 max: 0.2938390504 average: 0.0144138993
ExecutionTime = 893.86 s  ClockTime = 901 s

Time = 113756

smoothSolver:  Solving for Ux, Initial residual = 0.0001536853935, Final residual = 1.472053105e-08, No Iterations 4
smoothSolver:  Solving for Uy, Initial residual = 0.0003525021702, Final residual = 8.237112936e-08, No Iterations 4
smoothSolver:  Solving for Uz, Initial residual = 0.004203169664, Final residual = 4.471329958e-08, No Iterations 5
GAMG:  Solving for p, Initial residual = 0.04610331024, Final residual = 9.909208407e-08, No Iterations 178
time step continuity errors : sum local = 7.690332203e-09, global = 2.103484149e-09, cumulative = -4.004218969e-07
smoothSolver:  Solving for omega, Initial residual = 0.2356438475, Final residual = 2.723964436e-08, No Iterations 4
bounding omega, min: -213.4009605 max: 962550 average: 172.2940952
smoothSolver:  Solving for k, Initial residual = 0.04197247744, Final residual = 5.660316928e-08, No Iterations 4
bounding k, min: -0.0001579912138 max: 0.2939772094 average: 0.01440046984
ExecutionTime = 894.09 s  ClockTime = 901 s

Time = 113757

smoothSolver:  Solving for Ux, Initial residual = 0.0001501882043, Final residual = 1.530434662e-08, No Iterations 4
smoothSolver:  Solving for Uy, Initial residual = 0.00038060775, Final residual = 9.835564904e-08, No Iterations 4
smoothSolver:  Solving for Uz, Initial residual = 0.004155920707, Final residual = 4.511116358e-08, No Iterations 5
GAMG:  Solving for p, Initial residual = 0.04327694956, Final residual = 9.026539541e-08, No Iterations 204
time step continuity errors : sum local = 6.954728365e-09, global = 2.433123025e-09, cumulative = -3.979887739e-07
smoothSolver:  Solving for omega, Initial residual = 0.2379835849, Final residual = 2.354187755e-08, No Iterations 4
bounding omega, min: -177.6928903 max: 962550 average: 164.5199875
smoothSolver:  Solving for k, Initial residual = 0.04139138768, Final residual = 5.842302786e-08, No Iterations 4
bounding k, min: -0.000513152339 max: 0.2938518259 average: 0.01443243349
ExecutionTime = 894.35 s  ClockTime = 902 s

Time = 113758

smoothSolver:  Solving for Ux, Initial residual = 0.0001545554434, Final residual = 1.402608752e-08, No Iterations 4
smoothSolver:  Solving for Uy, Initial residual = 0.0003663174607, Final residual = 8.608908291e-08, No Iterations 4
smoothSolver:  Solving for Uz, Initial residual = 0.004144542244, Final residual = 4.458577663e-08, No Iterations 5
GAMG:  Solving for p, Initial residual = 0.04642078345, Final residual = 9.431006604e-08, No Iterations 176
time step continuity errors : sum local = 7.33409124e-09, global = -1.920632422e-09, cumulative = -3.999094063e-07
smoothSolver:  Solving for omega, Initial residual = 0.2329853842, Final residual = 2.464611185e-08, No Iterations 4
bounding omega, min: -356.2870561 max: 962550 average: 172.2561281
smoothSolver:  Solving for k, Initial residual = 0.04516823986, Final residual = 5.997158644e-08, No Iterations 4
bounding k, min: -0.0002096599077 max: 0.2939805548 average: 0.01442223314
ExecutionTime = 894.59 s  ClockTime = 902 s

Time = 113759

smoothSolver:  Solving for Ux, Initial residual = 0.0001547335747, Final residual = 1.43903951e-08, No Iterations 4
smoothSolver:  Solving for Uy, Initial residual = 0.0003784811863, Final residual = 9.027826246e-08, No Iterations 4
smoothSolver:  Solving for Uz, Initial residual = 0.004116120272, Final residual = 4.45906136e-08, No Iterations 5
GAMG:  Solving for p, Initial residual = 0.04485397002, Final residual = 9.102044919e-08, No Iterations 171
time step continuity errors : sum local = 7.032582234e-09, global = 2.114209308e-09, cumulative = -3.97795197e-07
smoothSolver:  Solving for omega, Initial residual = 0.243657899, Final residual = 2.811955578e-08, No Iterations 4
bounding omega, min: -250.6627012 max: 962550 average: 171.6854474
smoothSolver:  Solving for k, Initial residual = 0.04391666148, Final residual = 5.910080189e-08, No Iterations 4
bounding k, min: -0.002399077775 max: 0.2938464044 average: 0.01440629749
ExecutionTime = 894.83 s  ClockTime = 902 s

Time = 113760

smoothSolver:  Solving for Ux, Initial residual = 0.0001506082306, Final residual = 1.45495744e-08, No Iterations 4
smoothSolver:  Solving for Uy, Initial residual = 0.0003690379094, Final residual = 9.64935608e-08, No Iterations 4
smoothSolver:  Solving for Uz, Initial residual = 0.00407670585, Final residual = 4.222204227e-08, No Iterations 5
GAMG:  Solving for p, Initial residual = 0.0422966724, Final residual = 9.195087949e-08, No Iterations 206
time step continuity errors : sum local = 7.127254284e-09, global = -1.79715304e-09, cumulative = -3.9959235e-07
smoothSolver:  Solving for omega, Initial residual = 0.2386011591, Final residual = 2.344133085e-08, No Iterations 4
bounding omega, min: -210.2465612 max: 962550 average: 168.7568994
smoothSolver:  Solving for k, Initial residual = 0.04049482482, Final residual = 5.927378799e-08, No Iterations 4
bounding k, min: -0.0004001854977 max: 0.2939668993 average: 0.01440597387
ExecutionTime = 895.09 s  ClockTime = 902 s

Time = 113761

smoothSolver:  Solving for Ux, Initial residual = 0.0001490846135, Final residual = 1.521707114e-08, No Iterations 4
smoothSolver:  Solving for Uy, Initial residual = 0.0003466046285, Final residual = 8.624471784e-08, No Iterations 4
smoothSolver:  Solving for Uz, Initial residual = 0.004331270739, Final residual = 4.692700701e-08, No Iterations 5
GAMG:  Solving for p, Initial residual = 0.04547358301, Final residual = 8.67347037e-08, No Iterations 177
time step continuity errors : sum local = 6.685410631e-09, global = -1.564078588e-09, cumulative = -4.011564286e-07
smoothSolver:  Solving for omega, Initial residual = 0.2338161595, Final residual = 2.2520396e-08, No Iterations 4
bounding omega, min: -181.3980089 max: 962550 average: 165.7161534
smoothSolver:  Solving for k, Initial residual = 0.04268636243, Final residual = 5.046583854e-08, No Iterations 4
bounding k, min: 0 max: 0.2938260007 average: 0.01443093754
ExecutionTime = 895.34 s  ClockTime = 903 s

Time = 113762

smoothSolver:  Solving for Ux, Initial residual = 0.0001553249605, Final residual = 1.385846993e-08, No Iterations 4
smoothSolver:  Solving for Uy, Initial residual = 0.000365474384, Final residual = 8.913438912e-08, No Iterations 4
smoothSolver:  Solving for Uz, Initial residual = 0.004048227661, Final residual = 4.260994738e-08, No Iterations 5
GAMG:  Solving for p, Initial residual = 0.04317823701, Final residual = 9.05099192e-08, No Iterations 165
time step continuity errors : sum local = 7.014435376e-09, global = 1.830893262e-09, cumulative = -3.993255353e-07
smoothSolver:  Solving for omega, Initial residual = 0.2370116447, Final residual = 2.596431562e-08, No Iterations 4
bounding omega, min: -943.9312097 max: 962550 average: 171.4642021
smoothSolver:  Solving for k, Initial residual = 0.0431887598, Final residual = 5.677101659e-08, No Iterations 4
bounding k, min: -0.0001014659716 max: 0.2939399368 average: 0.01441426667
ExecutionTime = 895.57 s  ClockTime = 903 s

Time = 113763

smoothSolver:  Solving for Ux, Initial residual = 0.0001552810382, Final residual = 1.344100375e-08, No Iterations 4
smoothSolver:  Solving for Uy, Initial residual = 0.0003688077386, Final residual = 8.881523467e-08, No Iterations 4
smoothSolver:  Solving for Uz, Initial residual = 0.004110199882, Final residual = 4.924152713e-08, No Iterations 5
GAMG:  Solving for p, Initial residual = 0.04421355783, Final residual = 8.689106103e-08, No Iterations 186
time step continuity errors : sum local = 6.707271656e-09, global = -1.939075858e-09, cumulative = -4.012646112e-07
smoothSolver:  Solving for omega, Initial residual = 0.2386304535, Final residual = 2.095113479e-08, No Iterations 4
bounding omega, min: -478.0603565 max: 962550 average: 165.6662592
smoothSolver:  Solving for k, Initial residual = 0.04176130248, Final residual = 6.37391308e-08, No Iterations 4
bounding k, min: -0.0004027059562 max: 0.2937960126 average: 0.01442074886
ExecutionTime = 895.82 s  ClockTime = 903 s

Time = 113764

smoothSolver:  Solving for Ux, Initial residual = 0.0001523768827, Final residual = 1.487250485e-08, No Iterations 4
smoothSolver:  Solving for Uy, Initial residual = 0.0003686775604, Final residual = 9.022058553e-08, No Iterations 4
smoothSolver:  Solving for Uz, Initial residual = 0.004094973415, Final residual = 4.64234803e-08, No Iterations 5
GAMG:  Solving for p, Initial residual = 0.04610293952, Final residual = 9.846558208e-08, No Iterations 162
time step continuity errors : sum local = 7.663138075e-09, global = -1.879906164e-09, cumulative = -4.031445174e-07
smoothSolver:  Solving for omega, Initial residual = 0.2310877655, Final residual = 3.411307498e-08, No Iterations 4
bounding omega, min: -213.682515 max: 962550 average: 171.1866693
smoothSolver:  Solving for k, Initial residual = 0.04376630575, Final residual = 6.772905693e-08, No Iterations 4
bounding k, min: -0.0003453027759 max: 0.2939086673 average: 0.01442549599
ExecutionTime = 896.05 s  ClockTime = 903 s

Time = 113765

smoothSolver:  Solving for Ux, Initial residual = 0.0001588863693, Final residual = 1.498284906e-08, No Iterations 4
smoothSolver:  Solving for Uy, Initial residual = 0.0003948868489, Final residual = 9.613131599e-08, No Iterations 4
smoothSolver:  Solving for Uz, Initial residual = 0.004032105284, Final residual = 4.336301941e-08, No Iterations 5
GAMG:  Solving for p, Initial residual = 0.04684608789, Final residual = 9.45480832e-08, No Iterations 187
time step continuity errors : sum local = 7.337554396e-09, global = -2.153406275e-09, cumulative = -4.052979236e-07
smoothSolver:  Solving for omega, Initial residual = 0.2434113426, Final residual = 2.466850999e-08, No Iterations 4
bounding omega, min: -65.28916413 max: 962550 average: 171.5959744
smoothSolver:  Solving for k, Initial residual = 0.04509208734, Final residual = 6.053070983e-08, No Iterations 4
bounding k, min: -0.0003375445566 max: 0.2937645841 average: 0.01442343788
ExecutionTime = 896.3 s  ClockTime = 904 s

Time = 113766

smoothSolver:  Solving for Ux, Initial residual = 0.0001550010201, Final residual = 1.571494529e-08, No Iterations 4
smoothSolver:  Solving for Uy, Initial residual = 0.0003676859649, Final residual = 9.955049052e-08, No Iterations 4
smoothSolver:  Solving for Uz, Initial residual = 0.004116950558, Final residual = 4.595447023e-08, No Iterations 5
GAMG:  Solving for p, Initial residual = 0.04395679875, Final residual = 9.618870304e-08, No Iterations 195
time step continuity errors : sum local = 7.466358387e-09, global = 2.158158455e-09, cumulative = -4.031397652e-07
smoothSolver:  Solving for omega, Initial residual = 0.2397339562, Final residual = 2.205249228e-08, No Iterations 4
bounding omega, min: -158.4173228 max: 962550 average: 169.3150814
smoothSolver:  Solving for k, Initial residual = 0.04256184195, Final residual = 5.833955441e-08, No Iterations 4
bounding k, min: -0.0002297202101 max: 0.2938771718 average: 0.01441395644
ExecutionTime = 896.56 s  ClockTime = 904 s

Time = 113767

smoothSolver:  Solving for Ux, Initial residual = 0.0001527732619, Final residual = 1.441072816e-08, No Iterations 4
smoothSolver:  Solving for Uy, Initial residual = 0.000365526463, Final residual = 8.787166377e-08, No Iterations 4
smoothSolver:  Solving for Uz, Initial residual = 0.004107084789, Final residual = 4.279506737e-08, No Iterations 5
GAMG:  Solving for p, Initial residual = 0.04607741919, Final residual = 9.720477518e-08, No Iterations 159
time step continuity errors : sum local = 7.529454865e-09, global = 1.928070404e-09, cumulative = -4.012116948e-07
smoothSolver:  Solving for omega, Initial residual = 0.2351999142, Final residual = 2.665106424e-08, No Iterations 4
bounding omega, min: -1196.21397 max: 962550 average: 169.7487342
smoothSolver:  Solving for k, Initial residual = 0.04460718283, Final residual = 6.116016432e-08, No Iterations 4
bounding k, min: 0 max: 0.2937347061 average: 0.01441049485
ExecutionTime = 896.78 s  ClockTime = 904 s

Time = 113768

smoothSolver:  Solving for Ux, Initial residual = 0.0001535892235, Final residual = 1.432942389e-08, No Iterations 4
smoothSolver:  Solving for Uy, Initial residual = 0.0003668524373, Final residual = 9.238897085e-08, No Iterations 4
smoothSolver:  Solving for Uz, Initial residual = 0.003977788846, Final residual = 4.613330714e-08, No Iterations 5
GAMG:  Solving for p, Initial residual = 0.04364126691, Final residual = 9.526209397e-08, No Iterations 191
time step continuity errors : sum local = 7.412382721e-09, global = 2.161281591e-09, cumulative = -3.990504132e-07
smoothSolver:  Solving for omega, Initial residual = 0.2395788554, Final residual = 2.091360371e-08, No Iterations 4
bounding omega, min: -451.1520413 max: 962550 average: 169.6296384
smoothSolver:  Solving for k, Initial residual = 0.04156591842, Final residual = 5.21830042e-08, No Iterations 4
bounding k, min: -1.596355972e-05 max: 0.2938489241 average: 0.01441091702
ExecutionTime = 897.03 s  ClockTime = 904 s

Time = 113769

smoothSolver:  Solving for Ux, Initial residual = 0.0001495460562, Final residual = 1.536554992e-08, No Iterations 4
smoothSolver:  Solving for Uy, Initial residual = 0.0003426342172, Final residual = 8.616178487e-08, No Iterations 4
smoothSolver:  Solving for Uz, Initial residual = 0.004114505435, Final residual = 4.392574645e-08, No Iterations 5
GAMG:  Solving for p, Initial residual = 0.04614766574, Final residual = 9.722101888e-08, No Iterations 181
time step continuity errors : sum local = 7.505497087e-09, global = -2.08692354e-09, cumulative = -4.011373367e-07
smoothSolver:  Solving for omega, Initial residual = 0.2343552017, Final residual = 2.482748835e-08, No Iterations 4
bounding omega, min: -286.9328802 max: 962550 average: 166.6355865
smoothSolver:  Solving for k, Initial residual = 0.04259791093, Final residual = 5.803735764e-08, No Iterations 4
bounding k, min: -0.003590684862 max: 0.2937079282 average: 0.01443200676
ExecutionTime = 897.27 s  ClockTime = 905 s

Time = 113770

smoothSolver:  Solving for Ux, Initial residual = 0.0001517954024, Final residual = 1.612865525e-08, No Iterations 4
smoothSolver:  Solving for Uy, Initial residual = 0.0003648880712, Final residual = 1.977354615e-08, No Iterations 5
smoothSolver:  Solving for Uz, Initial residual = 0.00426537357, Final residual = 4.522088011e-08, No Iterations 5
GAMG:  Solving for p, Initial residual = 0.04458616577, Final residual = 9.96073307e-08, No Iterations 176
time step continuity errors : sum local = 7.743710663e-09, global = -1.792375958e-09, cumulative = -4.029297127e-07
smoothSolver:  Solving for omega, Initial residual = 0.2372531913, Final residual = 2.753005718e-08, No Iterations 4
bounding omega, min: -202.1083234 max: 962550 average: 172.5448985
smoothSolver:  Solving for k, Initial residual = 0.04482555901, Final residual = 5.831373704e-08, No Iterations 4
bounding k, min: -2.798429822e-05 max: 0.2938234129 average: 0.01442137023
ExecutionTime = 897.51 s  ClockTime = 905 s

Time = 113771

smoothSolver:  Solving for Ux, Initial residual = 0.0001564707657, Final residual = 1.382152393e-08, No Iterations 4
smoothSolver:  Solving for Uy, Initial residual = 0.0003641171846, Final residual = 9.203186173e-08, No Iterations 4
smoothSolver:  Solving for Uz, Initial residual = 0.004019345755, Final residual = 4.419872059e-08, No Iterations 5
GAMG:  Solving for p, Initial residual = 0.04514069209, Final residual = 9.510856557e-08, No Iterations 154
time step continuity errors : sum local = 7.336741489e-09, global = -1.866362249e-09, cumulative = -4.047960749e-07
smoothSolver:  Solving for omega, Initial residual = 0.242353817, Final residual = 2.108189254e-08, No Iterations 4
bounding omega, min: -149.7598243 max: 962550 average: 169.8691996
smoothSolver:  Solving for k, Initial residual = 0.0428906283, Final residual = 5.908024505e-08, No Iterations 4
bounding k, min: -0.001903060448 max: 0.2936834092 average: 0.01440716244
ExecutionTime = 897.73 s  ClockTime = 905 s

Time = 113772

smoothSolver:  Solving for Ux, Initial residual = 0.0001482235011, Final residual = 1.36082904e-08, No Iterations 4
smoothSolver:  Solving for Uy, Initial residual = 0.0003353679203, Final residual = 8.505811152e-08, No Iterations 4
smoothSolver:  Solving for Uz, Initial residual = 0.004027122848, Final residual = 4.253987785e-08, No Iterations 5
GAMG:  Solving for p, Initial residual = 0.0432596315, Final residual = 9.941331411e-08, No Iterations 203
time step continuity errors : sum local = 7.708347272e-09, global = 2.121822845e-09, cumulative = -4.026742521e-07
smoothSolver:  Solving for omega, Initial residual = 0.2345808692, Final residual = 2.551529481e-08, No Iterations 4
bounding omega, min: -916.9956759 max: 962550 average: 168.3571198
smoothSolver:  Solving for k, Initial residual = 0.04107754423, Final residual = 5.463275147e-08, No Iterations 4
bounding k, min: -0.0002259864362 max: 0.2937992931 average: 0.01439929001
ExecutionTime = 898 s  ClockTime = 905 s

Time = 113773

