/*---------------------------------------------------------------------------*\
| =========                 |                                                 |
| \\      /  F ield         | OpenFOAM: The Open Source CFD Toolbox           |
|  \\    /   O peration     | Version:  2.4.0                                 |
|   \\  /    A nd           | Web:      www.OpenFOAM.org                      |
|    \\/     M anipulation  |                                                 |
\*---------------------------------------------------------------------------*/
Build  : 2.4.0-dcea1e13ff76
Exec   : reconstructPar
Date   : Mar 31 2023
Time   : 12:27:50
Host   : "spartan-login1.hpc.unimelb.edu.au"
PID    : 20066
Case   : /data/scratch/projects/punim0394/BOR/2.GEP_IN_THE_LOOP/new_EVE3_from_Fabian/BOR_pop100_gen100/running_template/eval_template/PH_2D_RANS_kOmegaSSTx
nProcs : 1
sigFpe : Enabling floating point exception trapping (FOAM_SIGFPE).
fileModificationChecking : Monitoring run-time modified files using timeStampMaster
allowSystemOperations : Allowing user-supplied system call operations

// * * * * * * * * * * * * * * * * * * * * * * * * * * * * * * * * * * * * * //
Create time

