/*---------------------------------------------------------------------------*\
  =========                 |
  \\      /  F ield         | OpenFOAM: The Open Source CFD Toolbox
   \\    /   O peration     | Website:  https://openfoam.org
    \\  /    A nd           | Version:  7
     \\/     M anipulation  |
\*---------------------------------------------------------------------------*/
Build  : 7
Exec   : simpleFoam -postProcess -func R -case ./BOR
Date   : Nov 22 2022
Time   : 07:46:20
Host   : "spartan-bm101.hpc.unimelb.edu.au"
PID    : 86936
I/O    : uncollated
Case   : ./BOR
nProcs : 1
sigFpe : Enabling floating point exception trapping (FOAM_SIGFPE).
fileModificationChecking : Monitoring run-time modified files using timeStampMaster (fileModificationSkew 10)
allowSystemOperations : Allowing user-supplied system call operations

// * * * * * * * * * * * * * * * * * * * * * * * * * * * * * * * * * * * * * //
Create time

Create mesh for time = 0


SIMPLE: Convergence criteria found
        p: tolerance 1e-08
        U: tolerance 1e-08
        "(k|epsilon|R|omega)": tolerance 1e-08

Time = 0
Reading field p

Reading field U

Reading/calculating face flux field phi

Selecting incompressible transport model Newtonian
Selecting turbulence model type RAS
Selecting RAS turbulence model kOmegaSST_BOR_InDaLoop_R_added_features
Selecting patchDistMethod meshWave
bounding k, min: 0 max: 0.025229992 average: 0.0062544658
Reading tensor expression from GEP 

Tensor expression of nonlinearStress being run: 
(((2.0 - ((-0.15 * 2.0) + (-0.15 + -0.15))) * (I2 * ((0.089 - (2.0 + I1)) * (0.089 - 0.430))))) * T1 + (((((0.089 + -1.0) + (-1.0 - -0.15)) - (((I2 * 0.089) - -0.15) * (-0.15 - -0.15))) + ((((-1.0 - 0.430) + 0.430) - (-0.15 + 1.0)) - 2.0))) * T2 + ((((((I1 * 1.0) * (0.205 + -0.15)) - (0.205 + -0.15)) - (2.0 + 2.0)) - (((0.205 + -0.15) * I2) * (1.0 - I2)))) * T3 

Tensor expression of Rij being run: 
(((((0.430 + (0.205 + 0.430)) * 1.0) - -0.15) + ((I2 * ((0.097 - 0.089) * 0.089)) + (I2 + ((0.097 * 0.205) * 0.205))))) * T1 + ((((-1.0 + I1) * 0.430) * ((((0.430 + 0.430) - 2.0) * I2) + ((I2 + I1) * (0.205 - -1.0))))) * T2 + ((((I1 - ((0.097 * 0.089) - -1.0)) - -0.15) + ((0.089 + ((0.430 - 0.097) + -1.0)) - 0.205))) * T3 

No MRF models present

No finite volume options present
turbulenceFields R: storing fields:
    "R"

    functionObjects::turbulenceFields R writing field: R

Time = 2000
Reading field p

Reading field U

Reading/calculating face flux field phi

Selecting incompressible transport model Newtonian
Selecting turbulence model type RAS
Selecting RAS turbulence model kOmegaSST_BOR_InDaLoop_R_added_features
Selecting patchDistMethod meshWave
bounding k, min: 0 max: 0.029742894 average: 0.012344066
Reading tensor expression from GEP 

Tensor expression of nonlinearStress being run: 
(((2.0 - ((-0.15 * 2.0) + (-0.15 + -0.15))) * (I2 * ((0.089 - (2.0 + I1)) * (0.089 - 0.430))))) * T1 + (((((0.089 + -1.0) + (-1.0 - -0.15)) - (((I2 * 0.089) - -0.15) * (-0.15 - -0.15))) + ((((-1.0 - 0.430) + 0.430) - (-0.15 + 1.0)) - 2.0))) * T2 + ((((((I1 * 1.0) * (0.205 + -0.15)) - (0.205 + -0.15)) - (2.0 + 2.0)) - (((0.205 + -0.15) * I2) * (1.0 - I2)))) * T3 

Tensor expression of Rij being run: 
(((((0.430 + (0.205 + 0.430)) * 1.0) - -0.15) + ((I2 * ((0.097 - 0.089) * 0.089)) + (I2 + ((0.097 * 0.205) * 0.205))))) * T1 + ((((-1.0 + I1) * 0.430) * ((((0.430 + 0.430) - 2.0) * I2) + ((I2 + I1) * (0.205 - -1.0))))) * T2 + ((((I1 - ((0.097 * 0.089) - -1.0)) - -0.15) + ((0.089 + ((0.430 - 0.097) + -1.0)) - 0.205))) * T3 

No MRF models present

No finite volume options present
turbulenceFields R: storing fields:
    "R"

    functionObjects::turbulenceFields R writing field: R

End

